C11342-P28
     RDKit          3D

 37 38  0  0  0  0  0  0  0  0999 V2000
    5.2163  -16.5231   19.6089 C   0  0  0  0  0  0  0  0  0  0  0  0
    4.8607  -15.4806   20.6673 C   0  0  0  0  0  0  0  0  0  0  0  0
    3.3576  -15.5494   21.1040 C   0  0  0  0  0  0  0  0  0  0  0  0
    2.4394  -16.4130   20.3434 N   0  0  0  0  0  0  0  0  0  0  0  0
    1.6158  -17.5405   20.7677 C   0  0  0  0  0  0  0  0  0  0  0  0
    1.5399  -18.0978   21.8267 O   0  0  0  0  0  0  0  0  0  0  0  0
    0.6481  -17.9634   19.6135 C   0  0  0  0  0  0  0  0  0  0  0  0
    0.8475  -17.1636   18.5200 F   0  0  0  0  0  0  0  0  0  0  0  0
   -0.8326  -17.9190   19.9628 C   0  0  0  0  0  0  0  0  0  0  0  0
   -1.4846  -18.9034   19.0011 C   0  0  0  0  0  0  0  0  0  0  0  0
   -0.4536  -19.7530   18.4836 O   0  0  0  0  0  0  0  0  0  0  0  0
    0.7736  -19.4173   19.1732 C   0  0  0  0  0  0  0  0  0  0  0  0
    5.3726  -14.1561   20.2415 N   0  0  0  0  0  0  0  0  0  0  0  0
    5.2661  -12.8599   20.8575 C   0  0  0  0  0  0  0  0  0  0  0  0
    4.6697  -12.5076   21.8296 O   0  0  0  0  0  0  0  0  0  0  0  0
    6.0505  -11.8318   20.1345 C   0  0  0  0  0  0  0  0  0  0  0  0
    5.7145  -10.5083   19.8593 C   0  0  0  0  0  0  0  0  0  0  0  0
    6.7189   -9.8335   19.1983 N   0  0  0  0  0  0  0  0  0  0  0  0
    7.6944  -10.7034   19.1071 C   0  0  0  0  0  0  0  0  0  0  0  0
    7.3522  -11.9057   19.6706 N   0  0  0  0  0  0  0  0  0  0  0  0
    4.9463  -17.5315   19.9387 H   0  0  0  0  0  0  0  0  0  0  0  0
    6.2933  -16.5176   19.4066 H   0  0  0  0  0  0  0  0  0  0  0  0
    4.7071  -16.3147   18.6614 H   0  0  0  0  0  0  0  0  0  0  0  0
    5.4503  -15.6999   21.5670 H   0  0  0  0  0  0  0  0  0  0  0  0
    2.9133  -14.5516   21.1080 H   0  0  0  0  0  0  0  0  0  0  0  0
    3.3204  -15.9113   22.1385 H   0  0  0  0  0  0  0  0  0  0  0  0
    2.1813  -16.1511   19.3931 H   0  0  0  0  0  0  0  0  0  0  0  0
   -1.2650  -16.9194   19.8648 H   0  0  0  0  0  0  0  0  0  0  0  0
   -1.0029  -18.2502   20.9942 H   0  0  0  0  0  0  0  0  0  0  0  0
   -1.9655  -18.4019   18.1589 H   0  0  0  0  0  0  0  0  0  0  0  0
   -2.2387  -19.5175   19.5029 H   0  0  0  0  0  0  0  0  0  0  0  0
    0.8839  -20.1026   20.0208 H   0  0  0  0  0  0  0  0  0  0  0  0
    1.6084  -19.5700   18.4833 H   0  0  0  0  0  0  0  0  0  0  0  0
    6.0287  -14.1043   19.4784 H   0  0  0  0  0  0  0  0  0  0  0  0
    4.7808  -10.0155   20.1058 H   0  0  0  0  0  0  0  0  0  0  0  0
    8.6616  -10.5327   18.6541 H   0  0  0  0  0  0  0  0  0  0  0  0
    7.9699  -12.6987   19.7683 H   0  0  0  0  0  0  0  0  0  0  0  0
  1  2  1  0
  2  3  1  0
  3  4  1  0
  4  5  1  0
  5  6  2  0
  5  7  1  0
  7  8  1  0
  7  9  1  0
  9 10  1  0
 10 11  1  0
 11 12  1  0
  2 13  1  0
 13 14  1  0
 14 15  2  0
 14 16  1  0
 16 17  2  0
 17 18  1  0
 18 19  2  0
 19 20  1  0
 12  7  1  0
 20 16  1  0
  1 21  1  0
  1 22  1  0
  1 23  1  0
  2 24  1  0
  3 25  1  0
  3 26  1  0
  4 27  1  0
  9 28  1  0
  9 29  1  0
 10 30  1  0
 10 31  1  0
 12 32  1  0
 12 33  1  0
 13 34  1  0
 17 35  1  0
 19 36  1  0
 20 37  1  0
M  END
>  <Energy>  (1) 
26.386247046144142

>  <compound_id>  (1) 
11342

>  <target_id>  (1) 
1

>  <reference_id>  (1) 
28

>  <inspiration_ids>  (1) 
[28, 63]

>  <energy_score>  (1) 
5.2645740912113155

>  <distance_score>  (1) 
13.652763080463272

>  <path>  (1) 
/opt/xchem-fragalysis-2/maxwin/BulkDock/SCRATCH/511017/C11342-P28/C11342-P28.minimised.mol

>  <scratch_subdir>  (1) 
/opt/xchem-fragalysis-2/maxwin/BulkDock/SCRATCH/511017/C11342-P28

>  <fragmenstein_runtime>  (1) 
15.096574783325195

>  <fragmenstein_outcome>  (1) 
too moved

>  <fragmenstein_mode>  (1) 
expansion

>  <fragmenstein_error>  (1) 


$$$$
C11342-P63
     RDKit          3D

 37 38  0  0  0  0  0  0  0  0999 V2000
    0.9992  -12.6475   14.0431 C   0  0  0  0  0  0  0  0  0  0  0  0
    1.5678  -12.8458   15.9515 C   0  0  0  0  0  0  0  0  0  0  0  0
   -0.0005  -13.3661   17.2621 C   0  0  0  0  0  0  0  0  0  0  0  0
   -1.6729  -14.0934   16.9159 N   0  0  0  0  0  0  0  0  0  0  0  0
   -2.3709  -15.3320   17.4920 C   0  0  0  0  0  0  0  0  0  0  0  0
   -1.9758  -16.0820   18.3724 O   0  0  0  0  0  0  0  0  0  0  0  0
   -4.0890  -15.8255   17.0188 C   0  0  0  0  0  0  0  0  0  0  0  0
   -4.1052  -17.0121   17.8872 F   0  0  0  0  0  0  0  0  0  0  0  0
   -5.8263  -15.5148   17.4140 C   0  0  0  0  0  0  0  0  0  0  0  0
   -6.6498  -15.7228   16.2305 C   0  0  0  0  0  0  0  0  0  0  0  0
   -5.6001  -16.2796   15.2737 O   0  0  0  0  0  0  0  0  0  0  0  0
   -4.1624  -16.4690   15.7251 C   0  0  0  0  0  0  0  0  0  0  0  0
    2.8945  -11.5844   16.7365 N   0  0  0  0  0  0  0  0  0  0  0  0
    3.8720  -10.6860   16.0985 C   0  0  0  0  0  0  0  0  0  0  0  0
    4.1748  -10.5552   14.9449 O   0  0  0  0  0  0  0  0  0  0  0  0
    4.4892   -9.7216   17.0630 C   0  0  0  0  0  0  0  0  0  0  0  0
    4.9551   -8.4597   16.6861 C   0  0  0  0  0  0  0  0  0  0  0  0
    5.4167   -7.7349   17.7536 N   0  0  0  0  0  0  0  0  0  0  0  0
    5.2469   -8.5240   18.7848 C   0  0  0  0  0  0  0  0  0  0  0  0
    4.6746   -9.7192   18.4249 N   0  0  0  0  0  0  0  0  0  0  0  0
   -0.0591  -12.4330   13.7462 H   0  0  0  0  0  0  0  0  0  0  0  0
    1.4353  -11.7806   13.6172 H   0  0  0  0  0  0  0  0  0  0  0  0
    0.9569  -13.5975   13.4773 H   0  0  0  0  0  0  0  0  0  0  0  0
    1.6238  -13.9393   16.3469 H   0  0  0  0  0  0  0  0  0  0  0  0
   -0.5333  -12.6058   17.8628 H   0  0  0  0  0  0  0  0  0  0  0  0
    0.5925  -13.9247   17.9807 H   0  0  0  0  0  0  0  0  0  0  0  0
   -2.2737  -13.6611   16.2870 H   0  0  0  0  0  0  0  0  0  0  0  0
   -6.1181  -14.4635   17.6291 H   0  0  0  0  0  0  0  0  0  0  0  0
   -6.1395  -16.1528   18.2550 H   0  0  0  0  0  0  0  0  0  0  0  0
   -7.5456  -16.3224   16.4529 H   0  0  0  0  0  0  0  0  0  0  0  0
   -7.1205  -14.8109   15.8334 H   0  0  0  0  0  0  0  0  0  0  0  0
   -3.4669  -16.1556   14.9624 H   0  0  0  0  0  0  0  0  0  0  0  0
   -3.8479  -17.4960   15.8977 H   0  0  0  0  0  0  0  0  0  0  0  0
    2.9592  -11.4846   17.7344 H   0  0  0  0  0  0  0  0  0  0  0  0
    4.9764   -8.0590   15.6774 H   0  0  0  0  0  0  0  0  0  0  0  0
    5.5095   -8.2933   19.8095 H   0  0  0  0  0  0  0  0  0  0  0  0
    4.4559  -10.4646   19.0678 H   0  0  0  0  0  0  0  0  0  0  0  0
  1  2  1  0
  2  3  1  0
  3  4  1  0
  4  5  1  0
  5  6  2  0
  5  7  1  0
  7  8  1  0
  7  9  1  0
  9 10  1  0
 10 11  1  0
 11 12  1  0
  2 13  1  0
 13 14  1  0
 14 15  2  0
 14 16  1  0
 16 17  2  0
 17 18  1  0
 18 19  2  0
 19 20  1  0
 12  7  1  0
 20 16  1  0
  1 21  1  0
  1 22  1  0
  1 23  1  0
  2 24  1  0
  3 25  1  0
  3 26  1  0
  4 27  1  0
  9 28  1  0
  9 29  1  0
 10 30  1  0
 10 31  1  0
 12 32  1  0
 12 33  1  0
 13 34  1  0
 17 35  1  0
 19 36  1  0
 20 37  1  0
M  END
>  <Energy>  (2) 
445.70756977471763

>  <compound_id>  (2) 
11342

>  <target_id>  (2) 
1

>  <reference_id>  (2) 
63

>  <inspiration_ids>  (2) 
[28, 63]

>  <energy_score>  (2) 
424.5858968197782

>  <distance_score>  (2) 
11.597236974974772

>  <path>  (2) 
/opt/xchem-fragalysis-2/maxwin/BulkDock/SCRATCH/511017/C11342-P63/C11342-P63.minimised.mol

>  <scratch_subdir>  (2) 
/opt/xchem-fragalysis-2/maxwin/BulkDock/SCRATCH/511017/C11342-P63

>  <fragmenstein_runtime>  (2) 
17.738313913345337

>  <fragmenstein_outcome>  (2) 
too moved

>  <fragmenstein_mode>  (2) 
expansion

>  <fragmenstein_error>  (2) 


$$$$
C11343-P28
     RDKit          3D

 46 47  0  0  0  0  0  0  0  0999 V2000
    0.9969  -12.3917   13.4642 C   0  0  0  0  0  0  0  0  0  0  0  0
    0.6250  -13.7725   13.4728 C   0  0  0  0  0  0  0  0  0  0  0  0
   -0.6031  -13.4683   13.0415 C   0  0  0  0  0  0  0  0  0  0  0  0
    0.6876  -14.3121   15.5888 C   0  0  0  0  0  0  0  0  0  0  0  0
    0.7200  -14.2869   11.5810 C   0  0  0  0  0  0  0  0  0  0  0  0
   -0.4685  -14.8536   10.5802 C   0  0  0  0  0  0  0  0  0  0  0  0
   -0.3100  -16.1081    9.8457 N   0  0  0  0  0  0  0  0  0  0  0  0
   -1.1090  -16.6951    8.7825 C   0  0  0  0  0  0  0  0  0  0  0  0
   -2.0556  -16.2606    8.1845 O   0  0  0  0  0  0  0  0  0  0  0  0
   -0.6844  -18.1663    8.4814 C   0  0  0  0  0  0  0  0  0  0  0  0
    0.6131  -18.4067    8.8382 F   0  0  0  0  0  0  0  0  0  0  0  0
   -0.8862  -18.5774    7.0333 C   0  0  0  0  0  0  0  0  0  0  0  0
   -1.2043  -20.0536    7.1252 C   0  0  0  0  0  0  0  0  0  0  0  0
   -2.0097  -20.2067    8.2863 O   0  0  0  0  0  0  0  0  0  0  0  0
   -1.6020  -19.1671    9.1980 C   0  0  0  0  0  0  0  0  0  0  0  0
    1.0975  -12.9605   10.7183 N   0  0  0  0  0  0  0  0  0  0  0  0
    1.7385  -12.8151    9.4311 C   0  0  0  0  0  0  0  0  0  0  0  0
    2.0811  -13.6384    8.6336 O   0  0  0  0  0  0  0  0  0  0  0  0
    2.0816  -11.3799    9.1825 C   0  0  0  0  0  0  0  0  0  0  0  0
    2.6794  -10.8130    8.0616 C   0  0  0  0  0  0  0  0  0  0  0  0
    3.1557   -9.5372    8.2912 N   0  0  0  0  0  0  0  0  0  0  0  0
    2.8796   -9.2947    9.5459 C   0  0  0  0  0  0  0  0  0  0  0  0
    2.2263  -10.3526   10.1184 N   0  0  0  0  0  0  0  0  0  0  0  0
    1.8486  -12.6052   14.0047 H   0  0  0  0  0  0  0  0  0  0  0  0
    0.9988  -11.7823   14.2775 H   0  0  0  0  0  0  0  0  0  0  0  0
    0.8368  -11.7167   12.6328 H   0  0  0  0  0  0  0  0  0  0  0  0
   -0.8703  -14.3901   12.6026 H   0  0  0  0  0  0  0  0  0  0  0  0
   -0.6376  -12.6593   12.3030 H   0  0  0  0  0  0  0  0  0  0  0  0
   -1.1601  -13.3957   13.9223 H   0  0  0  0  0  0  0  0  0  0  0  0
    1.2206  -13.5380   16.1886 H   0  0  0  0  0  0  0  0  0  0  0  0
   -0.2920  -14.2682   16.1740 H   0  0  0  0  0  0  0  0  0  0  0  0
    1.6773  -14.7724   16.0249 H   0  0  0  0  0  0  0  0  0  0  0  0
    1.3793  -15.1114   11.4537 H   0  0  0  0  0  0  0  0  0  0  0  0
   -0.6237  -14.1240    9.7745 H   0  0  0  0  0  0  0  0  0  0  0  0
   -1.4658  -14.9133   11.0028 H   0  0  0  0  0  0  0  0  0  0  0  0
    0.4701  -16.7314   10.0587 H   0  0  0  0  0  0  0  0  0  0  0  0
   -0.0026  -18.3944    6.4149 H   0  0  0  0  0  0  0  0  0  0  0  0
   -1.7360  -18.0584    6.5762 H   0  0  0  0  0  0  0  0  0  0  0  0
   -1.7417  -20.4224    6.2471 H   0  0  0  0  0  0  0  0  0  0  0  0
   -0.2934  -20.6492    7.2528 H   0  0  0  0  0  0  0  0  0  0  0  0
   -1.0720  -19.6544   10.0184 H   0  0  0  0  0  0  0  0  0  0  0  0
   -2.5231  -18.6988    9.5326 H   0  0  0  0  0  0  0  0  0  0  0  0
    0.8810  -12.0583   11.0756 H   0  0  0  0  0  0  0  0  0  0  0  0
    2.8400  -11.2994    7.1066 H   0  0  0  0  0  0  0  0  0  0  0  0
    3.1223   -8.3934   10.0931 H   0  0  0  0  0  0  0  0  0  0  0  0
    2.0006  -10.3905   11.1011 H   0  0  0  0  0  0  0  0  0  0  0  0
  1  2  1  0
  2  3  1  0
  2  4  1  0
  2  5  1  0
  5  6  1  0
  6  7  1  0
  7  8  1  0
  8  9  2  0
  8 10  1  0
 10 11  1  0
 10 12  1  0
 12 13  1  0
 13 14  1  0
 14 15  1  0
  5 16  1  0
 16 17  1  0
 17 18  2  0
 17 19  1  0
 19 20  2  0
 20 21  1  0
 21 22  2  0
 22 23  1  0
 15 10  1  0
 23 19  1  0
  1 24  1  0
  1 25  1  0
  1 26  1  0
  3 27  1  0
  3 28  1  0
  3 29  1  0
  4 30  1  0
  4 31  1  0
  4 32  1  0
  5 33  1  0
  6 34  1  0
  6 35  1  0
  7 36  1  0
 12 37  1  0
 12 38  1  0
 13 39  1  0
 13 40  1  0
 15 41  1  0
 15 42  1  0
 16 43  1  0
 20 44  1  0
 22 45  1  0
 23 46  1  0
M  END
>  <Energy>  (3) 
426.78445972879558

>  <compound_id>  (3) 
11343

>  <target_id>  (3) 
1

>  <reference_id>  (3) 
28

>  <inspiration_ids>  (3) 
[28, 63]

>  <energy_score>  (3) 
369.28314633948077

>  <distance_score>  (3) 
13.508413140548294

>  <path>  (3) 
/opt/xchem-fragalysis-2/maxwin/BulkDock/SCRATCH/511017/C11343-P28/C11343-P28.minimised.mol

>  <scratch_subdir>  (3) 
/opt/xchem-fragalysis-2/maxwin/BulkDock/SCRATCH/511017/C11343-P28

>  <fragmenstein_runtime>  (3) 
23.916400909423828

>  <fragmenstein_outcome>  (3) 
too moved

>  <fragmenstein_mode>  (3) 
expansion

>  <fragmenstein_error>  (3) 


$$$$
C11343-P63
     RDKit          3D

 46 47  0  0  0  0  0  0  0  0999 V2000
    1.3623  -14.0320   17.5599 C   0  0  0  0  0  0  0  0  0  0  0  0
    2.8002  -13.9543   18.3171 C   0  0  0  0  0  0  0  0  0  0  0  0
    2.4742  -14.4274   19.7873 C   0  0  0  0  0  0  0  0  0  0  0  0
    3.5047  -12.4948   18.0265 C   0  0  0  0  0  0  0  0  0  0  0  0
    4.0346  -14.7889   18.2732 C   0  0  0  0  0  0  0  0  0  0  0  0
    3.0616  -15.7033   16.9726 C   0  0  0  0  0  0  0  0  0  0  0  0
    2.8383  -17.2922   16.1193 N   0  0  0  0  0  0  0  0  0  0  0  0
    3.7928  -18.1025   15.2663 C   0  0  0  0  0  0  0  0  0  0  0  0
    4.9118  -17.8456   14.8795 O   0  0  0  0  0  0  0  0  0  0  0  0
    3.2602  -19.6073   14.9074 C   0  0  0  0  0  0  0  0  0  0  0  0
    4.4160  -20.3615   14.6832 F   0  0  0  0  0  0  0  0  0  0  0  0
    2.5486  -20.3726   16.0025 C   0  0  0  0  0  0  0  0  0  0  0  0
    2.0981  -21.6245   15.2690 C   0  0  0  0  0  0  0  0  0  0  0  0
    1.7862  -21.2474   13.9264 O   0  0  0  0  0  0  0  0  0  0  0  0
    2.3484  -19.9195   13.7111 C   0  0  0  0  0  0  0  0  0  0  0  0
    5.3689  -13.7601   19.1678 N   0  0  0  0  0  0  0  0  0  0  0  0
    5.2821  -12.8183   20.3110 C   0  0  0  0  0  0  0  0  0  0  0  0
    4.3566  -12.5319   21.0080 O   0  0  0  0  0  0  0  0  0  0  0  0
    6.6316  -11.9081   20.6444 C   0  0  0  0  0  0  0  0  0  0  0  0
    8.0460  -11.9973   20.7790 C   0  0  0  0  0  0  0  0  0  0  0  0
    8.6964  -10.7986   20.9658 N   0  0  0  0  0  0  0  0  0  0  0  0
    7.7206   -9.9890   21.2488 C   0  0  0  0  0  0  0  0  0  0  0  0
    6.5679  -10.7051   21.3405 N   0  0  0  0  0  0  0  0  0  0  0  0
    1.0445  -14.5875   16.7201 H   0  0  0  0  0  0  0  0  0  0  0  0
    0.4884  -13.5949   18.0089 H   0  0  0  0  0  0  0  0  0  0  0  0
    1.3871  -13.5040   16.6210 H   0  0  0  0  0  0  0  0  0  0  0  0
    1.8530  -15.1157   20.3717 H   0  0  0  0  0  0  0  0  0  0  0  0
    2.8880  -15.2533   19.4808 H   0  0  0  0  0  0  0  0  0  0  0  0
    2.9339  -13.8950   20.6107 H   0  0  0  0  0  0  0  0  0  0  0  0
    4.1656  -12.4092   18.7930 H   0  0  0  0  0  0  0  0  0  0  0  0
    4.0283  -12.1562   17.1388 H   0  0  0  0  0  0  0  0  0  0  0  0
    2.9620  -11.5885   17.9236 H   0  0  0  0  0  0  0  0  0  0  0  0
    4.7563  -14.9709   17.5340 H   0  0  0  0  0  0  0  0  0  0  0  0
    2.4387  -15.1928   16.4007 H   0  0  0  0  0  0  0  0  0  0  0  0
    2.5327  -16.1429   17.7936 H   0  0  0  0  0  0  0  0  0  0  0  0
    2.0184  -17.8468   16.3182 H   0  0  0  0  0  0  0  0  0  0  0  0
    3.1942  -20.6364   16.8428 H   0  0  0  0  0  0  0  0  0  0  0  0
    1.7018  -19.8101   16.3902 H   0  0  0  0  0  0  0  0  0  0  0  0
    1.2426  -22.1136   15.7401 H   0  0  0  0  0  0  0  0  0  0  0  0
    2.9106  -22.3589   15.2239 H   0  0  0  0  0  0  0  0  0  0  0  0
    1.4866  -19.2722   13.5752 H   0  0  0  0  0  0  0  0  0  0  0  0
    2.9141  -19.9452   12.7750 H   0  0  0  0  0  0  0  0  0  0  0  0
    6.2561  -13.8130   18.8838 H   0  0  0  0  0  0  0  0  0  0  0  0
    8.6834  -12.8729   20.7277 H   0  0  0  0  0  0  0  0  0  0  0  0
    7.7941   -8.9392   21.4907 H   0  0  0  0  0  0  0  0  0  0  0  0
    5.7784  -10.4610   21.9088 H   0  0  0  0  0  0  0  0  0  0  0  0
  1  2  1  0
  2  3  1  0
  2  4  1  0
  2  5  1  0
  5  6  1  0
  6  7  1  0
  7  8  1  0
  8  9  2  0
  8 10  1  0
 10 11  1  0
 10 12  1  0
 12 13  1  0
 13 14  1  0
 14 15  1  0
  5 16  1  0
 16 17  1  0
 17 18  2  0
 17 19  1  0
 19 20  2  0
 20 21  1  0
 21 22  2  0
 22 23  1  0
 15 10  1  0
 23 19  1  0
  1 24  1  0
  1 25  1  0
  1 26  1  0
  3 27  1  0
  3 28  1  0
  3 29  1  0
  4 30  1  0
  4 31  1  0
  4 32  1  0
  5 33  1  0
  6 34  1  0
  6 35  1  0
  7 36  1  0
 12 37  1  0
 12 38  1  0
 13 39  1  0
 13 40  1  0
 15 41  1  0
 15 42  1  0
 16 43  1  0
 20 44  1  0
 22 45  1  0
 23 46  1  0
M  END
>  <Energy>  (4) 
557.907816523458

>  <compound_id>  (4) 
11343

>  <target_id>  (4) 
1

>  <reference_id>  (4) 
63

>  <inspiration_ids>  (4) 
[28, 63]

>  <energy_score>  (4) 
500.4065031341552

>  <distance_score>  (4) 
13.597284776812696

>  <path>  (4) 
/opt/xchem-fragalysis-2/maxwin/BulkDock/SCRATCH/511017/C11343-P63/C11343-P63.minimised.mol

>  <scratch_subdir>  (4) 
/opt/xchem-fragalysis-2/maxwin/BulkDock/SCRATCH/511017/C11343-P63

>  <fragmenstein_runtime>  (4) 
25.429278135299683

>  <fragmenstein_outcome>  (4) 
too moved

>  <fragmenstein_mode>  (4) 
expansion

>  <fragmenstein_error>  (4) 


$$$$
C11344-P28
     RDKit          3D

 40 41  0  0  0  0  0  0  0  0999 V2000
   -2.4909   -7.1741    6.3199 C   0  0  0  0  0  0  0  0  0  0  0  0
   -1.9729   -8.1866    7.3369 C   0  0  0  0  0  0  0  0  0  0  0  0
   -3.2783   -8.8147    8.2771 C   0  0  0  0  0  0  0  0  0  0  0  0
   -4.1635   -9.9506    7.0023 N   0  0  0  0  0  0  0  0  0  0  0  0
   -4.1494   -9.2660    8.2152 C   0  0  0  0  0  0  0  0  0  0  0  0
   -5.4460  -10.5784    6.8868 C   0  0  0  0  0  0  0  0  0  0  0  0
   -6.4153  -10.0492    6.3505 O   0  0  0  0  0  0  0  0  0  0  0  0
   -5.5385  -12.0610    7.3858 C   0  0  0  0  0  0  0  0  0  0  0  0
   -4.4649  -12.3878    8.1620 F   0  0  0  0  0  0  0  0  0  0  0  0
   -5.6212  -13.1331    6.3180 C   0  0  0  0  0  0  0  0  0  0  0  0
   -6.1756  -14.3199    7.0954 C   0  0  0  0  0  0  0  0  0  0  0  0
   -7.0740  -13.7888    8.0764 O   0  0  0  0  0  0  0  0  0  0  0  0
   -6.8325  -12.3670    8.1553 C   0  0  0  0  0  0  0  0  0  0  0  0
   -0.8872   -7.5688    8.1516 N   0  0  0  0  0  0  0  0  0  0  0  0
    0.5319   -7.8481    8.2080 C   0  0  0  0  0  0  0  0  0  0  0  0
    1.1784   -8.6981    7.6730 O   0  0  0  0  0  0  0  0  0  0  0  0
    1.3043   -6.9190    9.0748 C   0  0  0  0  0  0  0  0  0  0  0  0
    2.5795   -7.1333    9.6059 C   0  0  0  0  0  0  0  0  0  0  0  0
    3.0608   -6.0458   10.2969 N   0  0  0  0  0  0  0  0  0  0  0  0
    2.1139   -5.1488   10.1972 C   0  0  0  0  0  0  0  0  0  0  0  0
    1.0435   -5.6231    9.4800 N   0  0  0  0  0  0  0  0  0  0  0  0
   -1.6745   -6.8123    5.6855 H   0  0  0  0  0  0  0  0  0  0  0  0
   -3.2517   -7.6177    5.6712 H   0  0  0  0  0  0  0  0  0  0  0  0
   -2.9303   -6.3039    6.8190 H   0  0  0  0  0  0  0  0  0  0  0  0
   -1.5302   -9.0320    6.7983 H   0  0  0  0  0  0  0  0  0  0  0  0
   -2.5377   -9.4007    9.0012 H   0  0  0  0  0  0  0  0  0  0  0  0
   -3.5850   -7.6919    8.6979 H   0  0  0  0  0  0  0  0  0  0  0  0
   -5.0774   -9.2576    8.9689 H   0  0  0  0  0  0  0  0  0  0  0  0
   -5.0240   -8.5432    7.7917 H   0  0  0  0  0  0  0  0  0  0  0  0
   -4.2085  -10.2973    8.8180 H   0  0  0  0  0  0  0  0  0  0  0  0
   -4.6546  -13.3658    5.8626 H   0  0  0  0  0  0  0  0  0  0  0  0
   -6.3176  -12.8371    5.5247 H   0  0  0  0  0  0  0  0  0  0  0  0
   -5.3784  -14.8546    7.6233 H   0  0  0  0  0  0  0  0  0  0  0  0
   -6.7061  -15.0282    6.4530 H   0  0  0  0  0  0  0  0  0  0  0  0
   -7.7015  -11.8685    7.7122 H   0  0  0  0  0  0  0  0  0  0  0  0
   -6.7801  -12.0810    9.2077 H   0  0  0  0  0  0  0  0  0  0  0  0
   -1.1019   -6.8226    8.7967 H   0  0  0  0  0  0  0  0  0  0  0  0
    3.1742   -8.0340    9.5041 H   0  0  0  0  0  0  0  0  0  0  0  0
    2.1404   -4.1472   10.6064 H   0  0  0  0  0  0  0  0  0  0  0  0
    0.2361   -5.0724    9.2310 H   0  0  0  0  0  0  0  0  0  0  0  0
  1  2  1  0
  2  3  1  0
  3  4  1  0
  4  5  1  0
  4  6  1  0
  6  7  2  0
  6  8  1  0
  8  9  1  0
  8 10  1  0
 10 11  1  0
 11 12  1  0
 12 13  1  0
  2 14  1  0
 14 15  1  0
 15 16  2  0
 15 17  1  0
 17 18  2  0
 18 19  1  0
 19 20  2  0
 20 21  1  0
 13  8  1  0
 21 17  1  0
  1 22  1  0
  1 23  1  0
  1 24  1  0
  2 25  1  0
  3 26  1  0
  3 27  1  0
  5 28  1  0
  5 29  1  0
  5 30  1  0
 10 31  1  0
 10 32  1  0
 11 33  1  0
 11 34  1  0
 13 35  1  0
 13 36  1  0
 14 37  1  0
 18 38  1  0
 20 39  1  0
 21 40  1  0
M  END
>  <Energy>  (5) 
597.19475059997251

>  <compound_id>  (5) 
11344

>  <target_id>  (5) 
1

>  <reference_id>  (5) 
28

>  <inspiration_ids>  (5) 
[28, 63]

>  <energy_score>  (5) 
553.935141806777

>  <distance_score>  (5) 
14.08168183409323

>  <path>  (5) 
/opt/xchem-fragalysis-2/maxwin/BulkDock/SCRATCH/511017/C11344-P28/C11344-P28.minimised.mol

>  <scratch_subdir>  (5) 
/opt/xchem-fragalysis-2/maxwin/BulkDock/SCRATCH/511017/C11344-P28

>  <fragmenstein_runtime>  (5) 
26.475019216537476

>  <fragmenstein_outcome>  (5) 
too moved

>  <fragmenstein_mode>  (5) 
expansion

>  <fragmenstein_error>  (5) 


$$$$
C11344-P63
     RDKit          3D

 40 41  0  0  0  0  0  0  0  0999 V2000
    0.1646  -16.4063   11.2399 C   0  0  0  0  0  0  0  0  0  0  0  0
   -1.0448  -15.3789   11.0468 C   0  0  0  0  0  0  0  0  0  0  0  0
   -2.5532  -15.2835   10.1932 C   0  0  0  0  0  0  0  0  0  0  0  0
   -3.2396  -16.0745    9.1446 N   0  0  0  0  0  0  0  0  0  0  0  0
   -2.5863  -17.0100    8.2547 C   0  0  0  0  0  0  0  0  0  0  0  0
   -4.6129  -15.9037    9.0063 C   0  0  0  0  0  0  0  0  0  0  0  0
   -5.3839  -16.6108    9.6456 O   0  0  0  0  0  0  0  0  0  0  0  0
   -5.2435  -14.9520    8.0013 C   0  0  0  0  0  0  0  0  0  0  0  0
   -4.5314  -13.8209    7.7719 F   0  0  0  0  0  0  0  0  0  0  0  0
   -5.5180  -15.6914    6.7046 C   0  0  0  0  0  0  0  0  0  0  0  0
   -6.8536  -16.3553    6.9695 C   0  0  0  0  0  0  0  0  0  0  0  0
   -7.6052  -15.4335    7.7592 O   0  0  0  0  0  0  0  0  0  0  0  0
   -6.6644  -14.5756    8.4371 C   0  0  0  0  0  0  0  0  0  0  0  0
   -0.4427  -14.0914   11.1527 N   0  0  0  0  0  0  0  0  0  0  0  0
    0.3185  -13.5368   12.1137 C   0  0  0  0  0  0  0  0  0  0  0  0
    0.6243  -13.9323   13.1764 O   0  0  0  0  0  0  0  0  0  0  0  0
    0.8974  -12.1859   11.4754 C   0  0  0  0  0  0  0  0  0  0  0  0
    2.3101  -12.1122   10.8070 C   0  0  0  0  0  0  0  0  0  0  0  0
    2.7985  -10.8736   10.5300 N   0  0  0  0  0  0  0  0  0  0  0  0
    1.7618  -10.1518   10.8172 C   0  0  0  0  0  0  0  0  0  0  0  0
    0.7605  -10.8671   11.5545 N   0  0  0  0  0  0  0  0  0  0  0  0
   -0.0791  -17.4593   11.2237 H   0  0  0  0  0  0  0  0  0  0  0  0
    0.6712  -16.2181   12.1773 H   0  0  0  0  0  0  0  0  0  0  0  0
    0.9575  -16.2701   10.4846 H   0  0  0  0  0  0  0  0  0  0  0  0
   -0.7717  -15.7056   10.0759 H   0  0  0  0  0  0  0  0  0  0  0  0
   -3.2066  -15.1586   11.0184 H   0  0  0  0  0  0  0  0  0  0  0  0
   -2.6453  -14.3697    9.6662 H   0  0  0  0  0  0  0  0  0  0  0  0
   -3.1257  -17.9613    8.2667 H   0  0  0  0  0  0  0  0  0  0  0  0
   -2.6428  -16.6113    7.2374 H   0  0  0  0  0  0  0  0  0  0  0  0
   -1.5348  -17.1405    8.4929 H   0  0  0  0  0  0  0  0  0  0  0  0
   -5.6121  -14.9661    5.8873 H   0  0  0  0  0  0  0  0  0  0  0  0
   -4.7563  -16.4183    6.4144 H   0  0  0  0  0  0  0  0  0  0  0  0
   -6.7394  -17.2780    7.5397 H   0  0  0  0  0  0  0  0  0  0  0  0
   -7.3978  -16.5812    6.0486 H   0  0  0  0  0  0  0  0  0  0  0  0
   -6.8258  -14.6374    9.5162 H   0  0  0  0  0  0  0  0  0  0  0  0
   -6.8951  -13.5471    8.1378 H   0  0  0  0  0  0  0  0  0  0  0  0
   -0.5557  -13.4604   10.4526 H   0  0  0  0  0  0  0  0  0  0  0  0
    2.9199  -12.9349   10.4717 H   0  0  0  0  0  0  0  0  0  0  0  0
    1.6853   -9.0940   10.5786 H   0  0  0  0  0  0  0  0  0  0  0  0
   -0.0179  -10.4884   12.0498 H   0  0  0  0  0  0  0  0  0  0  0  0
  1  2  1  0
  2  3  1  0
  3  4  1  0
  4  5  1  0
  4  6  1  0
  6  7  2  0
  6  8  1  0
  8  9  1  0
  8 10  1  0
 10 11  1  0
 11 12  1  0
 12 13  1  0
  2 14  1  0
 14 15  1  0
 15 16  2  0
 15 17  1  0
 17 18  2  0
 18 19  1  0
 19 20  2  0
 20 21  1  0
 13  8  1  0
 21 17  1  0
  1 22  1  0
  1 23  1  0
  1 24  1  0
  2 25  1  0
  3 26  1  0
  3 27  1  0
  5 28  1  0
  5 29  1  0
  5 30  1  0
 10 31  1  0
 10 32  1  0
 11 33  1  0
 11 34  1  0
 13 35  1  0
 13 36  1  0
 14 37  1  0
 18 38  1  0
 20 39  1  0
 21 40  1  0
M  END
>  <Energy>  (6) 
182.7076280011762

>  <compound_id>  (6) 
11344

>  <target_id>  (6) 
1

>  <reference_id>  (6) 
63

>  <inspiration_ids>  (6) 
[28, 63]

>  <energy_score>  (6) 
139.44801920798233

>  <distance_score>  (6) 
13.351752515893729

>  <path>  (6) 
/opt/xchem-fragalysis-2/maxwin/BulkDock/SCRATCH/511017/C11344-P63/C11344-P63.minimised.mol

>  <scratch_subdir>  (6) 
/opt/xchem-fragalysis-2/maxwin/BulkDock/SCRATCH/511017/C11344-P63

>  <fragmenstein_runtime>  (6) 
22.377238750457764

>  <fragmenstein_outcome>  (6) 
too moved

>  <fragmenstein_mode>  (6) 
expansion

>  <fragmenstein_error>  (6) 


$$$$
C11345-P28
     RDKit          3D

 49 50  0  0  0  0  0  0  0  0999 V2000
   -4.2783  -19.8722   12.7560 C   0  0  0  0  0  0  0  0  0  0  0  0
   -5.0180  -18.5738   13.9213 C   0  0  0  0  0  0  0  0  0  0  0  0
   -3.7533  -17.3412   15.2564 C   0  0  0  0  0  0  0  0  0  0  0  0
   -3.0085  -16.4739   14.4453 C   0  0  0  0  0  0  0  0  0  0  0  0
   -3.5406  -16.3853   13.4882 O   0  0  0  0  0  0  0  0  0  0  0  0
   -1.2276  -15.7258   14.8431 N   0  0  0  0  0  0  0  0  0  0  0  0
    0.3087  -17.4922   14.5072 C   0  0  0  0  0  0  0  0  0  0  0  0
    0.2275  -14.1866   13.6189 C   0  0  0  0  0  0  0  0  0  0  0  0
    1.7800  -12.5022   14.2957 C   0  0  0  0  0  0  0  0  0  0  0  0
    3.2470  -10.7025   14.3820 N   0  0  0  0  0  0  0  0  0  0  0  0
    4.6507  -11.9723   14.2490 C   0  0  0  0  0  0  0  0  0  0  0  0
    3.6447   -9.7025   15.6426 C   0  0  0  0  0  0  0  0  0  0  0  0
    3.3481   -9.7598   16.8324 O   0  0  0  0  0  0  0  0  0  0  0  0
    4.3734   -8.6333   15.0132 C   0  0  0  0  0  0  0  0  0  0  0  0
    3.8632   -7.4695   14.4771 C   0  0  0  0  0  0  0  0  0  0  0  0
    4.6553   -7.0356   13.4524 N   0  0  0  0  0  0  0  0  0  0  0  0
    5.6732   -7.8628   13.4436 C   0  0  0  0  0  0  0  0  0  0  0  0
    5.6487   -8.6979   14.5188 N   0  0  0  0  0  0  0  0  0  0  0  0
   -6.1138  -19.1200   12.3463 C   0  0  0  0  0  0  0  0  0  0  0  0
   -6.1227  -20.4939   11.3682 C   0  0  0  0  0  0  0  0  0  0  0  0
   -7.3668  -20.1730   10.5972 C   0  0  0  0  0  0  0  0  0  0  0  0
   -8.2446  -20.2985   11.6892 C   0  0  0  0  0  0  0  0  0  0  0  0
   -7.5090  -19.3487   12.3176 O   0  0  0  0  0  0  0  0  0  0  0  0
   -3.9711  -19.5875   11.7854 H   0  0  0  0  0  0  0  0  0  0  0  0
   -4.8199  -20.7916   12.7746 H   0  0  0  0  0  0  0  0  0  0  0  0
   -3.4746  -20.4866   13.0469 H   0  0  0  0  0  0  0  0  0  0  0  0
   -5.7323  -17.6944   13.7245 H   0  0  0  0  0  0  0  0  0  0  0  0
   -4.3430  -16.6276   15.8644 H   0  0  0  0  0  0  0  0  0  0  0  0
   -3.3330  -18.0208   15.9826 H   0  0  0  0  0  0  0  0  0  0  0  0
    0.3746  -18.6438   14.1183 H   0  0  0  0  0  0  0  0  0  0  0  0
   -0.5942  -18.1664   14.9817 H   0  0  0  0  0  0  0  0  0  0  0  0
    1.4878  -17.6458   14.6880 H   0  0  0  0  0  0  0  0  0  0  0  0
    0.4091  -14.5534   12.5709 H   0  0  0  0  0  0  0  0  0  0  0  0
   -0.5556  -13.4619   13.3656 H   0  0  0  0  0  0  0  0  0  0  0  0
    1.9957  -13.1347   13.4707 H   0  0  0  0  0  0  0  0  0  0  0  0
    1.1230  -11.8889   13.7082 H   0  0  0  0  0  0  0  0  0  0  0  0
    4.5902  -11.7388   15.3167 H   0  0  0  0  0  0  0  0  0  0  0  0
    5.7239  -11.8121   14.5515 H   0  0  0  0  0  0  0  0  0  0  0  0
    5.1523  -11.2303   13.5638 H   0  0  0  0  0  0  0  0  0  0  0  0
    2.8876   -7.0337   14.6507 H   0  0  0  0  0  0  0  0  0  0  0  0
    6.4724   -7.8828   12.7178 H   0  0  0  0  0  0  0  0  0  0  0  0
    6.3596   -9.3866   14.7256 H   0  0  0  0  0  0  0  0  0  0  0  0
   -6.2146  -18.1500   11.8849 H   0  0  0  0  0  0  0  0  0  0  0  0
   -6.2769  -21.4238   11.9441 H   0  0  0  0  0  0  0  0  0  0  0  0
   -5.2850  -20.6875   10.7034 H   0  0  0  0  0  0  0  0  0  0  0  0
   -6.9983  -19.3043   10.0763 H   0  0  0  0  0  0  0  0  0  0  0  0
   -8.0448  -20.5073    9.8523 H   0  0  0  0  0  0  0  0  0  0  0  0
   -9.2208  -19.8767   11.6252 H   0  0  0  0  0  0  0  0  0  0  0  0
   -8.2947  -21.2863   12.1643 H   0  0  0  0  0  0  0  0  0  0  0  0
  1  2  1  0
  2  3  1  0
  3  4  1  0
  4  5  2  0
  4  6  1  0
  6  7  1  0
  6  8  1  0
  8  9  1  0
  9 10  1  0
 10 11  1  0
 10 12  1  0
 12 13  2  0
 12 14  1  0
 14 15  2  0
 15 16  1  0
 16 17  2  0
 17 18  1  0
  2 19  1  0
 19 20  1  0
 20 21  1  0
 21 22  1  0
 22 23  1  0
 18 14  1  0
 23 19  1  0
  1 24  1  0
  1 25  1  0
  1 26  1  0
  2 27  1  0
  3 28  1  0
  3 29  1  0
  7 30  1  0
  7 31  1  0
  7 32  1  0
  8 33  1  0
  8 34  1  0
  9 35  1  0
  9 36  1  0
 11 37  1  0
 11 38  1  0
 11 39  1  0
 15 40  1  0
 17 41  1  0
 18 42  1  0
 19 43  1  0
 20 44  1  0
 20 45  1  0
 21 46  1  0
 21 47  1  0
 22 48  1  0
 22 49  1  0
M  END
>  <Energy>  (7) 
2412.4072942901703

>  <compound_id>  (7) 
11345

>  <target_id>  (7) 
1

>  <reference_id>  (7) 
28

>  <inspiration_ids>  (7) 
[28, 63]

>  <energy_score>  (7) 
2384.574881021193

>  <distance_score>  (7) 
8.78993126782431

>  <path>  (7) 
/opt/xchem-fragalysis-2/maxwin/BulkDock/SCRATCH/511017/C11345-P28/C11345-P28.minimised.mol

>  <scratch_subdir>  (7) 
/opt/xchem-fragalysis-2/maxwin/BulkDock/SCRATCH/511017/C11345-P28

>  <fragmenstein_runtime>  (7) 
21.360860586166382

>  <fragmenstein_outcome>  (7) 
too moved

>  <fragmenstein_mode>  (7) 
expansion

>  <fragmenstein_error>  (7) 


$$$$
C11345-P63
     RDKit          3D

 49 50  0  0  0  0  0  0  0  0999 V2000
   -3.0063  -21.5592   14.2453 C   0  0  0  0  0  0  0  0  0  0  0  0
   -2.3041  -20.2824   13.6655 C   0  0  0  0  0  0  0  0  0  0  0  0
   -0.4770  -19.2138   12.8612 C   0  0  0  0  0  0  0  0  0  0  0  0
    0.8100  -17.4335   12.6646 C   0  0  0  0  0  0  0  0  0  0  0  0
    1.9577  -17.7871   12.3165 O   0  0  0  0  0  0  0  0  0  0  0  0
    0.5578  -15.5200   13.1708 N   0  0  0  0  0  0  0  0  0  0  0  0
    0.1577  -14.7260   11.9642 C   0  0  0  0  0  0  0  0  0  0  0  0
    1.9421  -13.8998   13.4476 C   0  0  0  0  0  0  0  0  0  0  0  0
    4.0205  -12.9226   14.3098 C   0  0  0  0  0  0  0  0  0  0  0  0
    5.7191  -12.6574   13.3366 N   0  0  0  0  0  0  0  0  0  0  0  0
    5.4525  -11.0603   13.7074 C   0  0  0  0  0  0  0  0  0  0  0  0
    7.1673  -13.0453   13.7228 C   0  0  0  0  0  0  0  0  0  0  0  0
    7.6088  -13.5109   14.7466 O   0  0  0  0  0  0  0  0  0  0  0  0
    8.2546  -12.7199   12.7826 C   0  0  0  0  0  0  0  0  0  0  0  0
    9.2506  -11.7940   13.1136 C   0  0  0  0  0  0  0  0  0  0  0  0
   10.1416  -11.5763   12.1013 N   0  0  0  0  0  0  0  0  0  0  0  0
    9.7677  -12.4201   11.1759 C   0  0  0  0  0  0  0  0  0  0  0  0
    8.6961  -13.1795   11.5766 N   0  0  0  0  0  0  0  0  0  0  0  0
   -4.1798  -19.7618   12.7525 C   0  0  0  0  0  0  0  0  0  0  0  0
   -5.8180  -18.8110   12.7984 C   0  0  0  0  0  0  0  0  0  0  0  0
   -6.9203  -19.6533   12.1244 C   0  0  0  0  0  0  0  0  0  0  0  0
   -6.6713  -20.9164   12.7920 C   0  0  0  0  0  0  0  0  0  0  0  0
   -5.1194  -20.9212   12.5536 O   0  0  0  0  0  0  0  0  0  0  0  0
   -3.8383  -21.0952   13.9385 H   0  0  0  0  0  0  0  0  0  0  0  0
   -3.4833  -21.9020   15.1541 H   0  0  0  0  0  0  0  0  0  0  0  0
   -2.8439  -22.5618   13.8106 H   0  0  0  0  0  0  0  0  0  0  0  0
   -2.8294  -20.4067   12.5944 H   0  0  0  0  0  0  0  0  0  0  0  0
   -0.0199  -19.7008   11.9872 H   0  0  0  0  0  0  0  0  0  0  0  0
    0.2677  -19.6445   13.5431 H   0  0  0  0  0  0  0  0  0  0  0  0
   -0.7666  -15.1163   11.5397 H   0  0  0  0  0  0  0  0  0  0  0  0
   -0.0367  -13.6607   12.1043 H   0  0  0  0  0  0  0  0  0  0  0  0
    0.7878  -15.0804   11.1581 H   0  0  0  0  0  0  0  0  0  0  0  0
    1.7041  -14.0219   12.4311 H   0  0  0  0  0  0  0  0  0  0  0  0
    1.1318  -13.1473   13.8035 H   0  0  0  0  0  0  0  0  0  0  0  0
    3.9861  -11.7249   14.3202 H   0  0  0  0  0  0  0  0  0  0  0  0
    3.9817  -12.2787   15.3016 H   0  0  0  0  0  0  0  0  0  0  0  0
    4.9467  -10.4390   14.4802 H   0  0  0  0  0  0  0  0  0  0  0  0
    5.0308  -10.6315   12.7845 H   0  0  0  0  0  0  0  0  0  0  0  0
    6.4699  -10.6456   13.6996 H   0  0  0  0  0  0  0  0  0  0  0  0
    9.3386  -11.2633   14.0526 H   0  0  0  0  0  0  0  0  0  0  0  0
   10.2352  -12.5503   10.2091 H   0  0  0  0  0  0  0  0  0  0  0  0
    8.2657  -13.9040   11.0231 H   0  0  0  0  0  0  0  0  0  0  0  0
   -3.9399  -19.6912   11.6969 H   0  0  0  0  0  0  0  0  0  0  0  0
   -6.0813  -17.8034   12.4471 H   0  0  0  0  0  0  0  0  0  0  0  0
   -5.9282  -18.4588   13.7915 H   0  0  0  0  0  0  0  0  0  0  0  0
   -8.0028  -19.5189   12.0878 H   0  0  0  0  0  0  0  0  0  0  0  0
   -6.8434  -19.5332   11.1035 H   0  0  0  0  0  0  0  0  0  0  0  0
   -6.9749  -21.1737   13.7791 H   0  0  0  0  0  0  0  0  0  0  0  0
   -7.3449  -21.7493   12.4617 H   0  0  0  0  0  0  0  0  0  0  0  0
  1  2  1  0
  2  3  1  0
  3  4  1  0
  4  5  2  0
  4  6  1  0
  6  7  1  0
  6  8  1  0
  8  9  1  0
  9 10  1  0
 10 11  1  0
 10 12  1  0
 12 13  2  0
 12 14  1  0
 14 15  2  0
 15 16  1  0
 16 17  2  0
 17 18  1  0
  2 19  1  0
 19 20  1  0
 20 21  1  0
 21 22  1  0
 22 23  1  0
 18 14  1  0
 23 19  1  0
  1 24  1  0
  1 25  1  0
  1 26  1  0
  2 27  1  0
  3 28  1  0
  3 29  1  0
  7 30  1  0
  7 31  1  0
  7 32  1  0
  8 33  1  0
  8 34  1  0
  9 35  1  0
  9 36  1  0
 11 37  1  0
 11 38  1  0
 11 39  1  0
 15 40  1  0
 17 41  1  0
 18 42  1  0
 19 43  1  0
 20 44  1  0
 20 45  1  0
 21 46  1  0
 21 47  1  0
 22 48  1  0
 22 49  1  0
M  END
>  <Energy>  (8) 
1747.637589083685

>  <compound_id>  (8) 
11345

>  <target_id>  (8) 
1

>  <reference_id>  (8) 
63

>  <inspiration_ids>  (8) 
[28, 63]

>  <energy_score>  (8) 
1719.8051758147665

>  <distance_score>  (8) 
9.792250460561606

>  <path>  (8) 
/opt/xchem-fragalysis-2/maxwin/BulkDock/SCRATCH/511017/C11345-P63/C11345-P63.minimised.mol

>  <scratch_subdir>  (8) 
/opt/xchem-fragalysis-2/maxwin/BulkDock/SCRATCH/511017/C11345-P63

>  <fragmenstein_runtime>  (8) 
25.895202159881592

>  <fragmenstein_outcome>  (8) 
too moved

>  <fragmenstein_mode>  (8) 
expansion

>  <fragmenstein_error>  (8) 


$$$$
C11347-P28
     RDKit          3D

 43 44  0  0  0  0  0  0  0  0999 V2000
   -0.6481  -19.3906   13.6370 C   0  0  0  0  0  0  0  0  0  0  0  0
   -1.8357  -18.3159   14.8260 C   0  0  0  0  0  0  0  0  0  0  0  0
   -3.0129  -17.7900   13.8057 N   0  0  0  0  0  0  0  0  0  0  0  0
   -2.7621  -16.1103   14.9447 C   0  0  0  0  0  0  0  0  0  0  0  0
   -1.3280  -14.3949   15.3041 C   0  0  0  0  0  0  0  0  0  0  0  0
    0.3310  -14.0914   16.4844 N   0  0  0  0  0  0  0  0  0  0  0  0
    1.1402  -15.1247   17.7638 C   0  0  0  0  0  0  0  0  0  0  0  0
    0.7729  -16.2111   18.2423 O   0  0  0  0  0  0  0  0  0  0  0  0
    2.5363  -14.6837   18.2684 C   0  0  0  0  0  0  0  0  0  0  0  0
    3.8125  -15.4385   18.0311 C   0  0  0  0  0  0  0  0  0  0  0  0
    4.2901  -16.3392   17.1087 C   0  0  0  0  0  0  0  0  0  0  0  0
    5.6587  -16.4880   17.2344 N   0  0  0  0  0  0  0  0  0  0  0  0
    5.9988  -15.7879   18.2894 C   0  0  0  0  0  0  0  0  0  0  0  0
    4.9218  -15.1359   18.8067 N   0  0  0  0  0  0  0  0  0  0  0  0
   -4.8530  -18.3262   13.6051 C   0  0  0  0  0  0  0  0  0  0  0  0
   -5.1142  -18.9999   14.3669 O   0  0  0  0  0  0  0  0  0  0  0  0
   -6.0911  -18.2244   12.5646 C   0  0  0  0  0  0  0  0  0  0  0  0
   -7.0892  -19.6070   11.9313 C   0  0  0  0  0  0  0  0  0  0  0  0
   -6.6927  -21.0056   12.2568 C   0  0  0  0  0  0  0  0  0  0  0  0
   -5.3255  -20.8741   11.7498 C   0  0  0  0  0  0  0  0  0  0  0  0
   -4.9109  -19.6159   12.3072 O   0  0  0  0  0  0  0  0  0  0  0  0
   -0.2666  -19.1501   12.6294 H   0  0  0  0  0  0  0  0  0  0  0  0
   -0.9925  -20.4230   13.4453 H   0  0  0  0  0  0  0  0  0  0  0  0
    0.4303  -19.2367   13.9387 H   0  0  0  0  0  0  0  0  0  0  0  0
   -0.9195  -17.9002   15.0553 H   0  0  0  0  0  0  0  0  0  0  0  0
   -2.1461  -18.8437   15.7412 H   0  0  0  0  0  0  0  0  0  0  0  0
   -3.4349  -16.2586   15.8433 H   0  0  0  0  0  0  0  0  0  0  0  0
   -3.5814  -15.9537   14.3015 H   0  0  0  0  0  0  0  0  0  0  0  0
   -1.8606  -13.8546   16.2062 H   0  0  0  0  0  0  0  0  0  0  0  0
   -1.2012  -13.8494   14.3106 H   0  0  0  0  0  0  0  0  0  0  0  0
    0.9129  -13.3180   16.2523 H   0  0  0  0  0  0  0  0  0  0  0  0
    2.7544  -13.7119   17.9140 H   0  0  0  0  0  0  0  0  0  0  0  0
    2.4871  -14.7422   19.3642 H   0  0  0  0  0  0  0  0  0  0  0  0
    3.7440  -16.8380   16.3149 H   0  0  0  0  0  0  0  0  0  0  0  0
    6.9927  -15.7076   18.7073 H   0  0  0  0  0  0  0  0  0  0  0  0
    4.9403  -14.4903   19.5831 H   0  0  0  0  0  0  0  0  0  0  0  0
   -6.1324  -17.4446   11.7981 H   0  0  0  0  0  0  0  0  0  0  0  0
   -8.1737  -19.5455   12.0674 H   0  0  0  0  0  0  0  0  0  0  0  0
   -6.9699  -19.5882   10.8411 H   0  0  0  0  0  0  0  0  0  0  0  0
   -7.3169  -21.7442   11.8111 H   0  0  0  0  0  0  0  0  0  0  0  0
   -6.8699  -21.2748   13.2810 H   0  0  0  0  0  0  0  0  0  0  0  0
   -5.2982  -20.8501   10.6570 H   0  0  0  0  0  0  0  0  0  0  0  0
   -4.5600  -21.6120   11.9350 H   0  0  0  0  0  0  0  0  0  0  0  0
  1  2  1  0
  2  3  1  0
  3  4  1  0
  4  5  1  0
  5  6  1  0
  6  7  1  0
  7  8  2  0
  7  9  1  0
  9 10  1  0
 10 11  2  0
 11 12  1  0
 12 13  2  0
 13 14  1  0
  3 15  1  0
 15 16  2  0
 15 17  1  0
 17 18  1  0
 18 19  1  0
 19 20  1  0
 20 21  1  0
 14 10  1  0
 21 17  1  0
  1 22  1  0
  1 23  1  0
  1 24  1  0
  2 25  1  0
  2 26  1  0
  4 27  1  0
  4 28  1  0
  5 29  1  0
  5 30  1  0
  6 31  1  0
  9 32  1  0
  9 33  1  0
 11 34  1  0
 13 35  1  0
 14 36  1  0
 17 37  1  0
 18 38  1  0
 18 39  1  0
 19 40  1  0
 19 41  1  0
 20 42  1  0
 20 43  1  0
M  END
>  <Energy>  (9) 
986.39627598359687

>  <compound_id>  (9) 
11347

>  <target_id>  (9) 
1

>  <reference_id>  (9) 
28

>  <inspiration_ids>  (9) 
[28, 63]

>  <energy_score>  (9) 
898.611465463138

>  <distance_score>  (9) 
12.384650319677812

>  <path>  (9) 
/opt/xchem-fragalysis-2/maxwin/BulkDock/SCRATCH/511017/C11347-P28/C11347-P28.minimised.mol

>  <scratch_subdir>  (9) 
/opt/xchem-fragalysis-2/maxwin/BulkDock/SCRATCH/511017/C11347-P28

>  <fragmenstein_runtime>  (9) 
18.758569717407227

>  <fragmenstein_outcome>  (9) 
too moved

>  <fragmenstein_mode>  (9) 
expansion

>  <fragmenstein_error>  (9) 


$$$$
C11347-P63
     RDKit          3D

 43 44  0  0  0  0  0  0  0  0999 V2000
   -3.7134  -17.1843   15.7595 C   0  0  0  0  0  0  0  0  0  0  0  0
   -2.2556  -17.7205   14.8036 C   0  0  0  0  0  0  0  0  0  0  0  0
   -1.6727  -19.2247   14.9611 N   0  0  0  0  0  0  0  0  0  0  0  0
    0.2633  -18.3529   14.9443 C   0  0  0  0  0  0  0  0  0  0  0  0
    1.8128  -17.7237   16.3360 C   0  0  0  0  0  0  0  0  0  0  0  0
    2.5564  -15.9154   16.8381 N   0  0  0  0  0  0  0  0  0  0  0  0
    3.6712  -15.3959   18.1862 C   0  0  0  0  0  0  0  0  0  0  0  0
    4.2701  -16.0559   19.0129 O   0  0  0  0  0  0  0  0  0  0  0  0
    3.8609  -14.0124   18.4678 C   0  0  0  0  0  0  0  0  0  0  0  0
    4.8863  -13.6131   19.6997 C   0  0  0  0  0  0  0  0  0  0  0  0
    4.7966  -12.8545   20.8531 C   0  0  0  0  0  0  0  0  0  0  0  0
    6.0285  -12.3667   21.2355 N   0  0  0  0  0  0  0  0  0  0  0  0
    6.8892  -13.0306   20.5051 C   0  0  0  0  0  0  0  0  0  0  0  0
    6.2440  -13.9163   19.6894 N   0  0  0  0  0  0  0  0  0  0  0  0
   -1.7141  -20.6331   13.6636 C   0  0  0  0  0  0  0  0  0  0  0  0
   -2.0446  -20.5648   12.5826 O   0  0  0  0  0  0  0  0  0  0  0  0
   -1.0201  -22.4216   13.9944 C   0  0  0  0  0  0  0  0  0  0  0  0
   -2.0415  -23.5141   14.3951 C   0  0  0  0  0  0  0  0  0  0  0  0
   -1.2561  -24.4879   15.2345 C   0  0  0  0  0  0  0  0  0  0  0  0
    0.1657  -24.1696   14.8672 C   0  0  0  0  0  0  0  0  0  0  0  0
    0.1752  -22.7504   14.6829 O   0  0  0  0  0  0  0  0  0  0  0  0
   -4.3387  -16.6900   15.0214 H   0  0  0  0  0  0  0  0  0  0  0  0
   -3.6596  -16.2468   16.3618 H   0  0  0  0  0  0  0  0  0  0  0  0
   -3.9459  -17.9250   16.5326 H   0  0  0  0  0  0  0  0  0  0  0  0
   -2.2769  -16.5776   14.8371 H   0  0  0  0  0  0  0  0  0  0  0  0
   -2.8605  -17.8651   13.9535 H   0  0  0  0  0  0  0  0  0  0  0  0
    1.0272  -19.2041   15.1710 H   0  0  0  0  0  0  0  0  0  0  0  0
    0.6631  -18.7053   13.9059 H   0  0  0  0  0  0  0  0  0  0  0  0
    1.5723  -18.1830   17.3098 H   0  0  0  0  0  0  0  0  0  0  0  0
    2.7147  -18.2543   15.9837 H   0  0  0  0  0  0  0  0  0  0  0  0
    2.1588  -15.1012   16.3734 H   0  0  0  0  0  0  0  0  0  0  0  0
    4.6388  -14.3350   17.8137 H   0  0  0  0  0  0  0  0  0  0  0  0
    3.4057  -13.1233   18.1218 H   0  0  0  0  0  0  0  0  0  0  0  0
    3.9168  -12.5242   21.3804 H   0  0  0  0  0  0  0  0  0  0  0  0
    7.9672  -12.9605   20.5583 H   0  0  0  0  0  0  0  0  0  0  0  0
    6.6823  -14.6193   19.1112 H   0  0  0  0  0  0  0  0  0  0  0  0
   -0.9105  -22.7509   12.9490 H   0  0  0  0  0  0  0  0  0  0  0  0
   -2.8602  -23.1020   14.9601 H   0  0  0  0  0  0  0  0  0  0  0  0
   -2.4572  -24.0059   13.5079 H   0  0  0  0  0  0  0  0  0  0  0  0
   -1.5242  -25.5336   15.0644 H   0  0  0  0  0  0  0  0  0  0  0  0
   -1.4048  -24.2615   16.2963 H   0  0  0  0  0  0  0  0  0  0  0  0
    0.4664  -24.6521   13.9302 H   0  0  0  0  0  0  0  0  0  0  0  0
    0.8768  -24.4445   15.6508 H   0  0  0  0  0  0  0  0  0  0  0  0
  1  2  1  0
  2  3  1  0
  3  4  1  0
  4  5  1  0
  5  6  1  0
  6  7  1  0
  7  8  2  0
  7  9  1  0
  9 10  1  0
 10 11  2  0
 11 12  1  0
 12 13  2  0
 13 14  1  0
  3 15  1  0
 15 16  2  0
 15 17  1  0
 17 18  1  0
 18 19  1  0
 19 20  1  0
 20 21  1  0
 14 10  1  0
 21 17  1  0
  1 22  1  0
  1 23  1  0
  1 24  1  0
  2 25  1  0
  2 26  1  0
  4 27  1  0
  4 28  1  0
  5 29  1  0
  5 30  1  0
  6 31  1  0
  9 32  1  0
  9 33  1  0
 11 34  1  0
 13 35  1  0
 14 36  1  0
 17 37  1  0
 18 38  1  0
 18 39  1  0
 19 40  1  0
 19 41  1  0
 20 42  1  0
 20 43  1  0
M  END
>  <Energy>  (10) 
830.69050602713878

>  <compound_id>  (10) 
11347

>  <target_id>  (10) 
1

>  <reference_id>  (10) 
63

>  <inspiration_ids>  (10) 
[28, 63]

>  <energy_score>  (10) 
742.905695506676

>  <distance_score>  (10) 
12.202994653407666

>  <path>  (10) 
/opt/xchem-fragalysis-2/maxwin/BulkDock/SCRATCH/511017/C11347-P63/C11347-P63.minimised.mol

>  <scratch_subdir>  (10) 
/opt/xchem-fragalysis-2/maxwin/BulkDock/SCRATCH/511017/C11347-P63

>  <fragmenstein_runtime>  (10) 
26.562777519226074

>  <fragmenstein_outcome>  (10) 
too moved

>  <fragmenstein_mode>  (10) 
expansion

>  <fragmenstein_error>  (10) 


$$$$
C11348-P28
     RDKit          3D

 39 41  0  0  0  0  0  0  0  0999 V2000
    4.6234  -15.1140   17.1746 O   0  0  0  0  0  0  0  0  0  0  0  0
    3.6350  -14.8281   17.6595 C   0  0  0  0  0  0  0  0  0  0  0  0
    2.6450  -15.6821   18.2250 N   0  0  0  0  0  0  0  0  0  0  0  0
    2.5493  -17.1420   18.2672 C   0  0  0  0  0  0  0  0  0  0  0  0
    2.7906  -18.3183   17.0489 C   0  0  0  0  0  0  0  0  0  0  0  0
    3.6167  -19.6040   16.8938 C   0  0  0  0  0  0  0  0  0  0  0  0
    3.1416  -20.1547   15.5661 C   0  0  0  0  0  0  0  0  0  0  0  0
    2.9579  -18.8816   14.7857 C   0  0  0  0  0  0  0  0  0  0  0  0
    2.9454  -17.7841   15.7374 O   0  0  0  0  0  0  0  0  0  0  0  0
    2.9885  -13.2876   17.7321 N   0  0  0  0  0  0  0  0  0  0  0  0
    3.5894  -11.6180   16.9224 C   0  0  0  0  0  0  0  0  0  0  0  0
    3.8702  -11.6948   15.5301 C   0  0  0  0  0  0  0  0  0  0  0  0
    5.0577  -11.9249   14.1981 C   0  0  0  0  0  0  0  0  0  0  0  0
    5.8500  -11.1719   13.5437 C   0  0  0  0  0  0  0  0  0  0  0  0
    5.8653  -10.4138   14.5494 C   0  0  0  0  0  0  0  0  0  0  0  0
    7.8930  -10.0738   15.0861 C   0  0  0  0  0  0  0  0  0  0  0  0
    8.5957  -10.3446   16.5097 C   0  0  0  0  0  0  0  0  0  0  0  0
    9.9339  -10.5526   16.6643 N   0  0  0  0  0  0  0  0  0  0  0  0
   10.3094  -10.5673   15.4510 C   0  0  0  0  0  0  0  0  0  0  0  0
    9.2402  -10.4457   14.6310 N   0  0  0  0  0  0  0  0  0  0  0  0
    4.2731  -10.7231   15.7126 C   0  0  0  0  0  0  0  0  0  0  0  0
    1.8734  -15.1396   18.4879 H   0  0  0  0  0  0  0  0  0  0  0  0
    1.7294  -17.4305   18.9312 H   0  0  0  0  0  0  0  0  0  0  0  0
    3.4853  -17.1794   18.7609 H   0  0  0  0  0  0  0  0  0  0  0  0
    1.8794  -18.9109   17.1959 H   0  0  0  0  0  0  0  0  0  0  0  0
    3.4576  -20.3553   17.6700 H   0  0  0  0  0  0  0  0  0  0  0  0
    4.6756  -19.3915   16.7266 H   0  0  0  0  0  0  0  0  0  0  0  0
    3.8586  -20.8364   15.0991 H   0  0  0  0  0  0  0  0  0  0  0  0
    2.2031  -20.7003   15.6855 H   0  0  0  0  0  0  0  0  0  0  0  0
    2.0265  -18.9165   14.2173 H   0  0  0  0  0  0  0  0  0  0  0  0
    3.7897  -18.7093   14.0954 H   0  0  0  0  0  0  0  0  0  0  0  0
    2.0985  -13.3344   18.1269 H   0  0  0  0  0  0  0  0  0  0  0  0
    2.7643  -12.2425   15.2403 H   0  0  0  0  0  0  0  0  0  0  0  0
    5.6521  -12.8200   14.1351 H   0  0  0  0  0  0  0  0  0  0  0  0
    6.6706  -11.7997   13.2136 H   0  0  0  0  0  0  0  0  0  0  0  0
    8.0631  -10.4600   17.4348 H   0  0  0  0  0  0  0  0  0  0  0  0
   11.3115  -10.7561   15.0964 H   0  0  0  0  0  0  0  0  0  0  0  0
    9.4420  -10.4993   13.6711 H   0  0  0  0  0  0  0  0  0  0  0  0
    3.8789   -9.9605   16.5919 H   0  0  0  0  0  0  0  0  0  0  0  0
  1  2  2  0
  2  3  1  0
  3  4  1  0
  4  5  1  0
  5  6  1  0
  6  7  1  0
  7  8  1  0
  8  9  1  0
  2 10  1  0
 10 11  1  0
 11 12  2  0
 12 13  1  0
 13 14  2  0
 14 15  1  0
 15 16  1  0
 16 17  2  0
 17 18  1  0
 18 19  2  0
 19 20  1  0
 15 21  2  0
  9  5  1  0
 21 11  1  0
 20 16  1  0
  3 22  1  0
  4 23  1  0
  4 24  1  0
  5 25  1  0
  6 26  1  0
  6 27  1  0
  7 28  1  0
  7 29  1  0
  8 30  1  0
  8 31  1  0
 10 32  1  0
 12 33  1  0
 13 34  1  0
 14 35  1  0
 17 36  1  0
 19 37  1  0
 20 38  1  0
 21 39  1  0
M  END
>  <Energy>  (11) 
942.83319484221249

>  <compound_id>  (11) 
11348

>  <target_id>  (11) 
1

>  <reference_id>  (11) 
28

>  <inspiration_ids>  (11) 
[28, 63]

>  <energy_score>  (11) 
938.4276210235194

>  <distance_score>  (11) 
13.721579982047915

>  <path>  (11) 
/opt/xchem-fragalysis-2/maxwin/BulkDock/SCRATCH/511017/C11348-P28/C11348-P28.minimised.mol

>  <scratch_subdir>  (11) 
/opt/xchem-fragalysis-2/maxwin/BulkDock/SCRATCH/511017/C11348-P28

>  <fragmenstein_runtime>  (11) 
20.472270011901855

>  <fragmenstein_outcome>  (11) 
too moved

>  <fragmenstein_mode>  (11) 
expansion

>  <fragmenstein_error>  (11) 


$$$$
C11348-P63
     RDKit          3D

 39 41  0  0  0  0  0  0  0  0999 V2000
    2.7461  -12.9359    6.3049 O   0  0  0  0  0  0  0  0  0  0  0  0
    3.5537  -13.5205    6.9207 C   0  0  0  0  0  0  0  0  0  0  0  0
    3.4963  -14.9366    7.4962 N   0  0  0  0  0  0  0  0  0  0  0  0
    2.4632  -15.9945    7.3584 C   0  0  0  0  0  0  0  0  0  0  0  0
    2.2990  -17.2479    8.2809 C   0  0  0  0  0  0  0  0  0  0  0  0
    1.7504  -17.0579    9.6913 C   0  0  0  0  0  0  0  0  0  0  0  0
    0.4842  -17.8857    9.7816 C   0  0  0  0  0  0  0  0  0  0  0  0
    0.6527  -18.8878    8.6764 C   0  0  0  0  0  0  0  0  0  0  0  0
    1.3686  -18.1808    7.6521 O   0  0  0  0  0  0  0  0  0  0  0  0
    4.9945  -13.0904    7.2977 N   0  0  0  0  0  0  0  0  0  0  0  0
    5.6870  -11.8479    7.0843 C   0  0  0  0  0  0  0  0  0  0  0  0
    5.0096  -10.8265    6.4137 C   0  0  0  0  0  0  0  0  0  0  0  0
    5.5686   -9.5520    6.2576 C   0  0  0  0  0  0  0  0  0  0  0  0
    6.8226   -9.2437    6.7895 C   0  0  0  0  0  0  0  0  0  0  0  0
    7.5723  -10.2188    7.4518 C   0  0  0  0  0  0  0  0  0  0  0  0
    8.8603   -9.8030    8.0839 C   0  0  0  0  0  0  0  0  0  0  0  0
    9.9586  -10.5112    8.5468 C   0  0  0  0  0  0  0  0  0  0  0  0
   10.8781   -9.7018    9.1741 N   0  0  0  0  0  0  0  0  0  0  0  0
   10.4099   -8.4865    9.0329 C   0  0  0  0  0  0  0  0  0  0  0  0
    9.1721   -8.4991    8.4579 N   0  0  0  0  0  0  0  0  0  0  0  0
    6.9998  -11.5453    7.5435 C   0  0  0  0  0  0  0  0  0  0  0  0
    4.3209  -15.1062    8.0411 H   0  0  0  0  0  0  0  0  0  0  0  0
    2.6227  -16.3746    6.3401 H   0  0  0  0  0  0  0  0  0  0  0  0
    1.5020  -15.4773    7.2870 H   0  0  0  0  0  0  0  0  0  0  0  0
    3.2698  -17.7559    8.3338 H   0  0  0  0  0  0  0  0  0  0  0  0
    2.4872  -17.4317   10.4120 H   0  0  0  0  0  0  0  0  0  0  0  0
    1.5668  -16.0175    9.9395 H   0  0  0  0  0  0  0  0  0  0  0  0
   -0.3837  -17.2523    9.5774 H   0  0  0  0  0  0  0  0  0  0  0  0
    0.3492  -18.3522   10.7605 H   0  0  0  0  0  0  0  0  0  0  0  0
    1.2612  -19.7417    8.9930 H   0  0  0  0  0  0  0  0  0  0  0  0
   -0.2980  -19.2536    8.2799 H   0  0  0  0  0  0  0  0  0  0  0  0
    5.4001  -13.7815    7.8999 H   0  0  0  0  0  0  0  0  0  0  0  0
    4.0118  -10.9854    6.0115 H   0  0  0  0  0  0  0  0  0  0  0  0
    4.9993   -8.7853    5.7358 H   0  0  0  0  0  0  0  0  0  0  0  0
    7.1935   -8.2324    6.6518 H   0  0  0  0  0  0  0  0  0  0  0  0
   10.1199  -11.5797    8.4838 H   0  0  0  0  0  0  0  0  0  0  0  0
   10.8995   -7.5748    9.3485 H   0  0  0  0  0  0  0  0  0  0  0  0
    8.5833   -7.6868    8.3458 H   0  0  0  0  0  0  0  0  0  0  0  0
    7.5686  -12.3258    8.0415 H   0  0  0  0  0  0  0  0  0  0  0  0
  1  2  2  0
  2  3  1  0
  3  4  1  0
  4  5  1  0
  5  6  1  0
  6  7  1  0
  7  8  1  0
  8  9  1  0
  2 10  1  0
 10 11  1  0
 11 12  2  0
 12 13  1  0
 13 14  2  0
 14 15  1  0
 15 16  1  0
 16 17  2  0
 17 18  1  0
 18 19  2  0
 19 20  1  0
 15 21  2  0
  9  5  1  0
 21 11  1  0
 20 16  1  0
  3 22  1  0
  4 23  1  0
  4 24  1  0
  5 25  1  0
  6 26  1  0
  6 27  1  0
  7 28  1  0
  7 29  1  0
  8 30  1  0
  8 31  1  0
 10 32  1  0
 12 33  1  0
 13 34  1  0
 14 35  1  0
 17 36  1  0
 19 37  1  0
 20 38  1  0
 21 39  1  0
M  END
>  <Energy>  (12) 
4.0187125540272408

>  <compound_id>  (12) 
11348

>  <target_id>  (12) 
1

>  <reference_id>  (12) 
63

>  <inspiration_ids>  (12) 
[28, 63]

>  <energy_score>  (12) 
-0.386861264642846

>  <distance_score>  (12) 
13.78922135786639

>  <path>  (12) 
/opt/xchem-fragalysis-2/maxwin/BulkDock/SCRATCH/511017/C11348-P63/C11348-P63.minimised.mol

>  <scratch_subdir>  (12) 
/opt/xchem-fragalysis-2/maxwin/BulkDock/SCRATCH/511017/C11348-P63

>  <fragmenstein_runtime>  (12) 
30.44557523727417

>  <fragmenstein_outcome>  (12) 
too moved

>  <fragmenstein_mode>  (12) 
expansion

>  <fragmenstein_error>  (12) 


$$$$
C87436-P68
     RDKit          3D

 28 30  0  0  0  0  0  0  0  0999 V2000
    0.2540  -28.3761   21.7719 Cl  0  0  0  0  0  0  0  0  0  0  0  0
   -0.8159  -28.1531   20.4533 C   0  0  0  0  0  0  0  0  0  0  0  0
   -1.9604  -28.9463   20.3031 C   0  0  0  0  0  0  0  0  0  0  0  0
   -2.7970  -28.7282   19.2165 C   0  0  0  0  0  0  0  0  0  0  0  0
   -2.4875  -27.7324   18.2756 C   0  0  0  0  0  0  0  0  0  0  0  0
   -1.3104  -26.9545   18.4397 C   0  0  0  0  0  0  0  0  0  0  0  0
   -0.6569  -25.6912   17.4326 S   0  0  0  0  0  0  0  0  0  0  0  0
    0.6856  -25.4256   18.5022 C   0  0  0  0  0  0  0  0  0  0  0  0
    1.6937  -24.4776   18.3588 N   0  0  0  0  0  0  0  0  0  0  0  0
    1.9880  -23.4183   17.3500 C   0  0  0  0  0  0  0  0  0  0  0  0
    1.8388  -21.9839   17.8615 C   0  0  0  0  0  0  0  0  0  0  0  0
    2.6669  -21.1372   16.8936 C   0  0  0  0  0  0  0  0  0  0  0  0
    3.8585  -21.9395   16.5859 N   0  0  0  0  0  0  0  0  0  0  0  0
    3.4927  -23.3390   16.9347 C   0  0  0  0  0  0  0  0  0  0  0  0
    0.6659  -26.2775   19.5222 N   0  0  0  0  0  0  0  0  0  0  0  0
   -0.4553  -27.1382   19.5248 C   0  0  0  0  0  0  0  0  0  0  0  0
   -2.1747  -29.7360   21.0173 H   0  0  0  0  0  0  0  0  0  0  0  0
   -3.6846  -29.3419   19.0819 H   0  0  0  0  0  0  0  0  0  0  0  0
   -3.1343  -27.5660   17.4185 H   0  0  0  0  0  0  0  0  0  0  0  0
    2.3028  -24.3949   19.1834 H   0  0  0  0  0  0  0  0  0  0  0  0
    1.3737  -23.5629   16.4531 H   0  0  0  0  0  0  0  0  0  0  0  0
    2.2070  -21.8873   18.8879 H   0  0  0  0  0  0  0  0  0  0  0  0
    0.7941  -21.7028   17.8508 H   0  0  0  0  0  0  0  0  0  0  0  0
    2.1110  -20.9862   15.9639 H   0  0  0  0  0  0  0  0  0  0  0  0
    2.9164  -20.1553   17.2963 H   0  0  0  0  0  0  0  0  0  0  0  0
    4.0418  -21.8730   15.5856 H   0  0  0  0  0  0  0  0  0  0  0  0
    4.1417  -23.6678   17.7536 H   0  0  0  0  0  0  0  0  0  0  0  0
    3.6849  -24.0073   16.0878 H   0  0  0  0  0  0  0  0  0  0  0  0
  1  2  1  0
  2  3  2  0
  3  4  1  0
  4  5  2  0
  5  6  1  0
  6  7  1  0
  7  8  1  0
  8  9  1  0
  9 10  1  0
 10 11  1  0
 11 12  1  0
 12 13  1  0
 13 14  1  0
  8 15  2  0
 15 16  1  0
 16  2  1  0
 16  6  2  0
 14 10  1  0
  3 17  1  0
  4 18  1  0
  5 19  1  0
  9 20  1  0
 10 21  1  0
 11 22  1  0
 11 23  1  0
 12 24  1  0
 12 25  1  0
 13 26  1  0
 14 27  1  0
 14 28  1  0
M  END
>  <Energy>  (13) 
35.231711999559423

>  <compound_id>  (13) 
87436

>  <target_id>  (13) 
1

>  <reference_id>  (13) 
68

>  <inspiration_ids>  (13) 
[68, 124]

>  <energy_score>  (13) 
-30.00118687208152

>  <distance_score>  (13) 
16.61265711444054

>  <path>  (13) 
/opt/xchem-fragalysis-2/maxwin/BulkDock/SCRATCH/511017/C87436-P68/C87436-P68.minimised.mol

>  <scratch_subdir>  (13) 
/opt/xchem-fragalysis-2/maxwin/BulkDock/SCRATCH/511017/C87436-P68

>  <fragmenstein_runtime>  (13) 
10.077366352081299

>  <fragmenstein_outcome>  (13) 
too moved

>  <fragmenstein_mode>  (13) 
expansion

>  <fragmenstein_error>  (13) 


$$$$
C87436-P124
     RDKit          3D

 28 30  0  0  0  0  0  0  0  0999 V2000
   -8.0483  -24.7414   23.6174 Cl  0  0  0  0  0  0  0  0  0  0  0  0
   -7.3971  -25.4224   22.1875 C   0  0  0  0  0  0  0  0  0  0  0  0
   -7.4490  -26.7993   21.9438 C   0  0  0  0  0  0  0  0  0  0  0  0
   -6.9069  -27.2943   20.7651 C   0  0  0  0  0  0  0  0  0  0  0  0
   -6.3132  -26.4239   19.8343 C   0  0  0  0  0  0  0  0  0  0  0  0
   -6.2775  -25.0312   20.1031 C   0  0  0  0  0  0  0  0  0  0  0  0
   -5.6272  -23.7232   19.1532 S   0  0  0  0  0  0  0  0  0  0  0  0
   -6.1100  -22.5317   20.3280 C   0  0  0  0  0  0  0  0  0  0  0  0
   -5.9627  -21.1406   20.2327 N   0  0  0  0  0  0  0  0  0  0  0  0
   -4.8811  -20.3450   19.5525 C   0  0  0  0  0  0  0  0  0  0  0  0
   -4.0155  -19.4927   20.5149 C   0  0  0  0  0  0  0  0  0  0  0  0
   -3.5659  -18.2299   19.7543 C   0  0  0  0  0  0  0  0  0  0  0  0
   -4.1835  -18.3284   18.4358 N   0  0  0  0  0  0  0  0  0  0  0  0
   -5.3553  -19.2073   18.6188 C   0  0  0  0  0  0  0  0  0  0  0  0
   -6.7152  -23.0919   21.3644 N   0  0  0  0  0  0  0  0  0  0  0  0
   -6.8170  -24.4998   21.2734 C   0  0  0  0  0  0  0  0  0  0  0  0
   -7.9003  -27.4741   22.6669 H   0  0  0  0  0  0  0  0  0  0  0  0
   -6.9291  -28.3659   20.5666 H   0  0  0  0  0  0  0  0  0  0  0  0
   -5.8784  -26.8182   18.9194 H   0  0  0  0  0  0  0  0  0  0  0  0
   -6.3431  -20.6684   21.0499 H   0  0  0  0  0  0  0  0  0  0  0  0
   -4.2918  -21.0379   18.9591 H   0  0  0  0  0  0  0  0  0  0  0  0
   -3.1647  -20.0601   20.8851 H   0  0  0  0  0  0  0  0  0  0  0  0
   -4.6039  -19.1953   21.3921 H   0  0  0  0  0  0  0  0  0  0  0  0
   -3.9205  -17.3363   20.2803 H   0  0  0  0  0  0  0  0  0  0  0  0
   -2.4812  -18.1596   19.6675 H   0  0  0  0  0  0  0  0  0  0  0  0
   -4.4636  -17.4097   18.0953 H   0  0  0  0  0  0  0  0  0  0  0  0
   -6.1842  -18.6501   19.0733 H   0  0  0  0  0  0  0  0  0  0  0  0
   -5.7007  -19.6020   17.6583 H   0  0  0  0  0  0  0  0  0  0  0  0
  1  2  1  0
  2  3  2  0
  3  4  1  0
  4  5  2  0
  5  6  1  0
  6  7  1  0
  7  8  1  0
  8  9  1  0
  9 10  1  0
 10 11  1  0
 11 12  1  0
 12 13  1  0
 13 14  1  0
  8 15  2  0
 15 16  1  0
 16  2  1  0
 16  6  2  0
 14 10  1  0
  3 17  1  0
  4 18  1  0
  5 19  1  0
  9 20  1  0
 10 21  1  0
 11 22  1  0
 11 23  1  0
 12 24  1  0
 12 25  1  0
 13 26  1  0
 14 27  1  0
 14 28  1  0
M  END
>  <Energy>  (14) 
34.088430934022966

>  <compound_id>  (14) 
87436

>  <target_id>  (14) 
1

>  <reference_id>  (14) 
124

>  <inspiration_ids>  (14) 
[68, 124]

>  <energy_score>  (14) 
-31.144467937618742

>  <distance_score>  (14) 
17.13597847899958

>  <path>  (14) 
/opt/xchem-fragalysis-2/maxwin/BulkDock/SCRATCH/511017/C87436-P124/C87436-P124.minimised.mol

>  <scratch_subdir>  (14) 
/opt/xchem-fragalysis-2/maxwin/BulkDock/SCRATCH/511017/C87436-P124

>  <fragmenstein_runtime>  (14) 
6.562798500061035

>  <fragmenstein_outcome>  (14) 
too moved

>  <fragmenstein_mode>  (14) 
expansion

>  <fragmenstein_error>  (14) 


$$$$
C87437-P68
     RDKit          3D

 29 31  0  0  0  0  0  0  0  0999 V2000
   -3.0946  -25.9333   18.1698 Cl  0  0  0  0  0  0  0  0  0  0  0  0
   -2.0716  -26.9528   19.0955 C   0  0  0  0  0  0  0  0  0  0  0  0
   -2.5789  -28.0960   19.7296 C   0  0  0  0  0  0  0  0  0  0  0  0
   -1.7092  -28.9234   20.4238 C   0  0  0  0  0  0  0  0  0  0  0  0
   -0.3424  -28.6088   20.4902 C   0  0  0  0  0  0  0  0  0  0  0  0
    0.1480  -27.4476   19.8348 C   0  0  0  0  0  0  0  0  0  0  0  0
    1.7735  -26.8472   19.7079 S   0  0  0  0  0  0  0  0  0  0  0  0
    1.2869  -25.4842   18.7046 C   0  0  0  0  0  0  0  0  0  0  0  0
    2.4023  -24.6628   17.8774 C   0  0  0  0  0  0  0  0  0  0  0  0
    2.6561  -23.0759   17.7756 C   0  0  0  0  0  0  0  0  0  0  0  0
    3.3510  -22.6235   16.4703 C   0  0  0  0  0  0  0  0  0  0  0  0
    3.1532  -21.1095   16.3871 C   0  0  0  0  0  0  0  0  0  0  0  0
    2.0682  -20.7807   17.3131 N   0  0  0  0  0  0  0  0  0  0  0  0
    1.5397  -22.0578   17.8606 C   0  0  0  0  0  0  0  0  0  0  0  0
   -0.0246  -25.4999   18.5109 N   0  0  0  0  0  0  0  0  0  0  0  0
   -0.6939  -26.5931   19.1283 C   0  0  0  0  0  0  0  0  0  0  0  0
   -3.6337  -28.3398   19.6544 H   0  0  0  0  0  0  0  0  0  0  0  0
   -2.0735  -29.8317   20.8998 H   0  0  0  0  0  0  0  0  0  0  0  0
    0.3433  -29.2649   21.0204 H   0  0  0  0  0  0  0  0  0  0  0  0
    3.3679  -25.0793   18.2038 H   0  0  0  0  0  0  0  0  0  0  0  0
    2.3399  -25.0526   16.8604 H   0  0  0  0  0  0  0  0  0  0  0  0
    3.3777  -22.8027   18.5410 H   0  0  0  0  0  0  0  0  0  0  0  0
    2.8738  -23.1047   15.6086 H   0  0  0  0  0  0  0  0  0  0  0  0
    4.4113  -22.8968   16.4643 H   0  0  0  0  0  0  0  0  0  0  0  0
    2.9045  -20.8119   15.3626 H   0  0  0  0  0  0  0  0  0  0  0  0
    4.0631  -20.5784   16.6703 H   0  0  0  0  0  0  0  0  0  0  0  0
    1.3285  -20.3120   16.7717 H   0  0  0  0  0  0  0  0  0  0  0  0
    1.2053  -21.9183   18.8930 H   0  0  0  0  0  0  0  0  0  0  0  0
    0.6875  -22.3978   17.2693 H   0  0  0  0  0  0  0  0  0  0  0  0
  1  2  1  0
  2  3  2  0
  3  4  1  0
  4  5  2  0
  5  6  1  0
  6  7  1  0
  7  8  1  0
  8  9  1  0
  9 10  1  0
 10 11  1  0
 11 12  1  0
 12 13  1  0
 13 14  1  0
  8 15  2  0
 15 16  1  0
 16  2  1  0
 16  6  2  0
 14 10  1  0
  3 17  1  0
  4 18  1  0
  5 19  1  0
  9 20  1  0
  9 21  1  0
 10 22  1  0
 11 23  1  0
 11 24  1  0
 12 25  1  0
 12 26  1  0
 13 27  1  0
 14 28  1  0
 14 29  1  0
M  END
>  <Energy>  (15) 
65.690446121259399

>  <compound_id>  (15) 
87437

>  <target_id>  (15) 
1

>  <reference_id>  (15) 
68

>  <inspiration_ids>  (15) 
[68, 124]

>  <energy_score>  (15) 
-29.236465165586537

>  <distance_score>  (15) 
16.68086296877993

>  <path>  (15) 
/opt/xchem-fragalysis-2/maxwin/BulkDock/SCRATCH/511017/C87437-P68/C87437-P68.minimised.mol

>  <scratch_subdir>  (15) 
/opt/xchem-fragalysis-2/maxwin/BulkDock/SCRATCH/511017/C87437-P68

>  <fragmenstein_runtime>  (15) 
11.291258811950684

>  <fragmenstein_outcome>  (15) 
too moved

>  <fragmenstein_mode>  (15) 
expansion

>  <fragmenstein_error>  (15) 


$$$$
C87437-P124
     RDKit          3D

 29 31  0  0  0  0  0  0  0  0999 V2000
    5.1355   -9.3338   13.9906 Cl  0  0  0  0  0  0  0  0  0  0  0  0
    4.8123   -9.0609   15.6509 C   0  0  0  0  0  0  0  0  0  0  0  0
    4.0409   -9.9913   16.3937 C   0  0  0  0  0  0  0  0  0  0  0  0
    3.7820   -9.7250   17.7261 C   0  0  0  0  0  0  0  0  0  0  0  0
    4.2846   -8.5314   18.2883 C   0  0  0  0  0  0  0  0  0  0  0  0
    5.0730   -7.5971   17.5097 C   0  0  0  0  0  0  0  0  0  0  0  0
    5.7975   -6.0691   17.9795 S   0  0  0  0  0  0  0  0  0  0  0  0
    6.8377   -5.5682   16.1798 C   0  0  0  0  0  0  0  0  0  0  0  0
    7.4233   -3.6049   15.6149 C   0  0  0  0  0  0  0  0  0  0  0  0
    8.7032   -2.6762   14.9827 C   0  0  0  0  0  0  0  0  0  0  0  0
   10.2247   -2.8835   14.8414 C   0  0  0  0  0  0  0  0  0  0  0  0
   10.6971   -1.4625   14.5313 C   0  0  0  0  0  0  0  0  0  0  0  0
    9.4933   -0.5095   14.5276 N   0  0  0  0  0  0  0  0  0  0  0  0
    8.2220   -1.2967   14.5229 C   0  0  0  0  0  0  0  0  0  0  0  0
    6.3491   -6.7833   15.6030 N   0  0  0  0  0  0  0  0  0  0  0  0
    5.3622   -7.8362   16.1898 C   0  0  0  0  0  0  0  0  0  0  0  0
    3.6661  -10.8923   15.9185 H   0  0  0  0  0  0  0  0  0  0  0  0
    3.1972  -10.4122   18.3304 H   0  0  0  0  0  0  0  0  0  0  0  0
    4.0852   -8.3012   19.3335 H   0  0  0  0  0  0  0  0  0  0  0  0
    7.1883   -2.6672   16.0635 H   0  0  0  0  0  0  0  0  0  0  0  0
    6.5141   -3.3174   14.9541 H   0  0  0  0  0  0  0  0  0  0  0  0
    8.9145   -2.0663   15.8918 H   0  0  0  0  0  0  0  0  0  0  0  0
   10.6147   -3.5430   14.0701 H   0  0  0  0  0  0  0  0  0  0  0  0
   10.6916   -3.2298   15.7703 H   0  0  0  0  0  0  0  0  0  0  0  0
   11.4585   -1.1989   15.2614 H   0  0  0  0  0  0  0  0  0  0  0  0
   11.2459   -1.4048   13.5830 H   0  0  0  0  0  0  0  0  0  0  0  0
    9.5348   -0.0789   13.5997 H   0  0  0  0  0  0  0  0  0  0  0  0
    7.5567   -0.8381   15.2657 H   0  0  0  0  0  0  0  0  0  0  0  0
    7.6093   -1.2942   13.6142 H   0  0  0  0  0  0  0  0  0  0  0  0
  1  2  1  0
  2  3  2  0
  3  4  1  0
  4  5  2  0
  5  6  1  0
  6  7  1  0
  7  8  1  0
  8  9  1  0
  9 10  1  0
 10 11  1  0
 11 12  1  0
 12 13  1  0
 13 14  1  0
  8 15  2  0
 15 16  1  0
 16  2  1  0
 16  6  2  0
 14 10  1  0
  3 17  1  0
  4 18  1  0
  5 19  1  0
  9 20  1  0
  9 21  1  0
 10 22  1  0
 11 23  1  0
 11 24  1  0
 12 25  1  0
 12 26  1  0
 13 27  1  0
 14 28  1  0
 14 29  1  0
M  END
>  <Energy>  (16) 
359.33049313102481

>  <compound_id>  (16) 
87437

>  <target_id>  (16) 
1

>  <reference_id>  (16) 
124

>  <inspiration_ids>  (16) 
[68, 124]

>  <energy_score>  (16) 
264.4035818441747

>  <distance_score>  (16) 
25.255277606270518

>  <path>  (16) 
/opt/xchem-fragalysis-2/maxwin/BulkDock/SCRATCH/511017/C87437-P124/C87437-P124.minimised.mol

>  <scratch_subdir>  (16) 
/opt/xchem-fragalysis-2/maxwin/BulkDock/SCRATCH/511017/C87437-P124

>  <fragmenstein_runtime>  (16) 
7.297973871231079

>  <fragmenstein_outcome>  (16) 
too moved

>  <fragmenstein_mode>  (16) 
expansion

>  <fragmenstein_error>  (16) 


$$$$
C87440-P68
     RDKit          3D

 39 41  0  0  0  0  0  0  0  0999 V2000
   -4.8722  -29.6100   18.3555 C   0  0  0  0  0  0  0  0  0  0  0  0
   -3.6193  -28.8146   18.4223 C   0  0  0  0  0  0  0  0  0  0  0  0
   -3.3509  -27.8868   19.3189 N   0  0  0  0  0  0  0  0  0  0  0  0
   -2.2514  -27.1390   18.8987 C   0  0  0  0  0  0  0  0  0  0  0  0
   -1.7097  -25.9801   19.5068 C   0  0  0  0  0  0  0  0  0  0  0  0
   -0.6331  -25.2519   18.9042 C   0  0  0  0  0  0  0  0  0  0  0  0
   -0.0518  -25.6524   17.6945 C   0  0  0  0  0  0  0  0  0  0  0  0
    1.2021  -24.9973   17.0051 C   0  0  0  0  0  0  0  0  0  0  0  0
    1.8125  -25.8132   16.3691 O   0  0  0  0  0  0  0  0  0  0  0  0
    1.4770  -23.5819   17.2500 N   0  0  0  0  0  0  0  0  0  0  0  0
    2.6581  -22.7253   16.8689 C   0  0  0  0  0  0  0  0  0  0  0  0
    2.4156  -21.3029   16.2492 C   0  0  0  0  0  0  0  0  0  0  0  0
    3.6493  -20.3113   16.1349 C   0  0  0  0  0  0  0  0  0  0  0  0
    4.6712  -20.4881   15.0180 C   0  0  0  0  0  0  0  0  0  0  0  0
    5.4736  -19.1771   15.0306 C   0  0  0  0  0  0  0  0  0  0  0  0
    4.5612  -18.1388   15.4982 N   0  0  0  0  0  0  0  0  0  0  0  0
    3.3196  -18.8200   15.9250 C   0  0  0  0  0  0  0  0  0  0  0  0
   -0.5719  -26.8516   17.1226 C   0  0  0  0  0  0  0  0  0  0  0  0
   -1.6538  -27.5650   17.7136 C   0  0  0  0  0  0  0  0  0  0  0  0
   -2.4543  -28.9963   17.1737 S   0  0  0  0  0  0  0  0  0  0  0  0
   -5.4759  -29.4550   19.2487 H   0  0  0  0  0  0  0  0  0  0  0  0
   -5.4701  -29.2909   17.4956 H   0  0  0  0  0  0  0  0  0  0  0  0
   -4.6699  -30.6763   18.2464 H   0  0  0  0  0  0  0  0  0  0  0  0
   -2.1389  -25.6320   20.4427 H   0  0  0  0  0  0  0  0  0  0  0  0
   -0.2439  -24.3858   19.4349 H   0  0  0  0  0  0  0  0  0  0  0  0
    0.7052  -23.1795   17.7642 H   0  0  0  0  0  0  0  0  0  0  0  0
    3.2743  -23.3182   16.1846 H   0  0  0  0  0  0  0  0  0  0  0  0
    3.2240  -22.6080   17.7987 H   0  0  0  0  0  0  0  0  0  0  0  0
    1.6882  -20.8138   16.9061 H   0  0  0  0  0  0  0  0  0  0  0  0
    1.9616  -21.4263   15.2607 H   0  0  0  0  0  0  0  0  0  0  0  0
    4.1769  -20.4276   17.0701 H   0  0  0  0  0  0  0  0  0  0  0  0
    5.3129  -21.3594   15.1810 H   0  0  0  0  0  0  0  0  0  0  0  0
    4.1619  -20.6111   14.0543 H   0  0  0  0  0  0  0  0  0  0  0  0
    5.8710  -18.9422   14.0387 H   0  0  0  0  0  0  0  0  0  0  0  0
    6.3187  -19.2653   15.7222 H   0  0  0  0  0  0  0  0  0  0  0  0
    4.9650  -17.6195   16.2711 H   0  0  0  0  0  0  0  0  0  0  0  0
    2.9248  -18.3646   16.8358 H   0  0  0  0  0  0  0  0  0  0  0  0
    2.5791  -18.7265   15.1270 H   0  0  0  0  0  0  0  0  0  0  0  0
   -0.1314  -27.2372   16.2036 H   0  0  0  0  0  0  0  0  0  0  0  0
  1  2  1  0
  2  3  2  0
  3  4  1  0
  4  5  2  0
  5  6  1  0
  6  7  2  0
  7  8  1  0
  8  9  2  0
  8 10  1  0
 10 11  1  0
 11 12  1  0
 12 13  1  0
 13 14  1  0
 14 15  1  0
 15 16  1  0
 16 17  1  0
  7 18  1  0
 18 19  2  0
 19 20  1  0
 20  2  1  0
 19  4  1  0
 17 13  1  0
  1 21  1  0
  1 22  1  0
  1 23  1  0
  5 24  1  0
  6 25  1  0
 10 26  1  0
 11 27  1  0
 11 28  1  0
 12 29  1  0
 12 30  1  0
 13 31  1  0
 14 32  1  0
 14 33  1  0
 15 34  1  0
 15 35  1  0
 16 36  1  0
 17 37  1  0
 17 38  1  0
 18 39  1  0
M  END
>  <Energy>  (17) 
42.652624505479366

>  <compound_id>  (17) 
87440

>  <target_id>  (17) 
1

>  <reference_id>  (17) 
68

>  <inspiration_ids>  (17) 
[68, 124]

>  <energy_score>  (17) 
-15.50172253645303

>  <distance_score>  (17) 
15.44637372023106

>  <path>  (17) 
/opt/xchem-fragalysis-2/maxwin/BulkDock/SCRATCH/511017/C87440-P68/C87440-P68.minimised.mol

>  <scratch_subdir>  (17) 
/opt/xchem-fragalysis-2/maxwin/BulkDock/SCRATCH/511017/C87440-P68

>  <fragmenstein_runtime>  (17) 
57.69509482383728

>  <fragmenstein_outcome>  (17) 
too moved

>  <fragmenstein_mode>  (17) 
expansion

>  <fragmenstein_error>  (17) 


$$$$
C87440-P124
     RDKit          3D

 39 41  0  0  0  0  0  0  0  0999 V2000
   -4.4496  -30.9334   23.2864 C   0  0  0  0  0  0  0  0  0  0  0  0
   -4.3186  -29.4565   23.2085 C   0  0  0  0  0  0  0  0  0  0  0  0
   -4.3410  -28.6537   24.2518 N   0  0  0  0  0  0  0  0  0  0  0  0
   -4.2415  -27.3336   23.8368 C   0  0  0  0  0  0  0  0  0  0  0  0
   -4.3061  -26.1822   24.6546 C   0  0  0  0  0  0  0  0  0  0  0  0
   -4.2045  -24.8748   24.1039 C   0  0  0  0  0  0  0  0  0  0  0  0
   -4.0175  -24.6708   22.7344 C   0  0  0  0  0  0  0  0  0  0  0  0
   -3.9347  -23.2853   22.0276 C   0  0  0  0  0  0  0  0  0  0  0  0
   -4.1992  -23.3818   20.8606 O   0  0  0  0  0  0  0  0  0  0  0  0
   -3.5827  -22.1176   22.8274 N   0  0  0  0  0  0  0  0  0  0  0  0
   -3.5368  -20.6779   22.4745 C   0  0  0  0  0  0  0  0  0  0  0  0
   -2.8282  -19.6623   23.4233 C   0  0  0  0  0  0  0  0  0  0  0  0
   -2.7717  -18.1779   22.8678 C   0  0  0  0  0  0  0  0  0  0  0  0
   -1.8952  -18.0365   21.6517 C   0  0  0  0  0  0  0  0  0  0  0  0
   -1.5340  -16.5789   21.5507 C   0  0  0  0  0  0  0  0  0  0  0  0
   -1.6688  -16.0109   22.8994 N   0  0  0  0  0  0  0  0  0  0  0  0
   -2.1219  -17.1204   23.7730 C   0  0  0  0  0  0  0  0  0  0  0  0
   -3.9906  -25.8376   21.9102 C   0  0  0  0  0  0  0  0  0  0  0  0
   -4.1027  -27.1415   22.4632 C   0  0  0  0  0  0  0  0  0  0  0  0
   -4.1245  -28.6859   21.6848 S   0  0  0  0  0  0  0  0  0  0  0  0
   -3.7673  -31.4374   22.5948 H   0  0  0  0  0  0  0  0  0  0  0  0
   -5.4751  -31.2365   23.0546 H   0  0  0  0  0  0  0  0  0  0  0  0
   -4.2073  -31.2702   24.2989 H   0  0  0  0  0  0  0  0  0  0  0  0
   -4.4478  -26.3126   25.7242 H   0  0  0  0  0  0  0  0  0  0  0  0
   -4.2938  -24.0363   24.7879 H   0  0  0  0  0  0  0  0  0  0  0  0
   -3.5050  -22.3924   23.7959 H   0  0  0  0  0  0  0  0  0  0  0  0
   -3.0799  -20.6357   21.4801 H   0  0  0  0  0  0  0  0  0  0  0  0
   -4.5816  -20.3725   22.3460 H   0  0  0  0  0  0  0  0  0  0  0  0
   -3.3535  -19.6566   24.3858 H   0  0  0  0  0  0  0  0  0  0  0  0
   -1.8094  -20.0153   23.6244 H   0  0  0  0  0  0  0  0  0  0  0  0
   -3.7935  -17.8580   22.6236 H   0  0  0  0  0  0  0  0  0  0  0  0
   -2.3828  -18.4066   20.7464 H   0  0  0  0  0  0  0  0  0  0  0  0
   -0.9855  -18.5971   21.8621 H   0  0  0  0  0  0  0  0  0  0  0  0
   -0.5123  -16.5201   21.1779 H   0  0  0  0  0  0  0  0  0  0  0  0
   -2.2063  -16.0630   20.8566 H   0  0  0  0  0  0  0  0  0  0  0  0
   -2.4110  -15.3097   22.8697 H   0  0  0  0  0  0  0  0  0  0  0  0
   -2.8282  -16.7544   24.5255 H   0  0  0  0  0  0  0  0  0  0  0  0
   -1.2690  -17.5460   24.3111 H   0  0  0  0  0  0  0  0  0  0  0  0
   -3.8861  -25.7341   20.8311 H   0  0  0  0  0  0  0  0  0  0  0  0
  1  2  1  0
  2  3  2  0
  3  4  1  0
  4  5  2  0
  5  6  1  0
  6  7  2  0
  7  8  1  0
  8  9  2  0
  8 10  1  0
 10 11  1  0
 11 12  1  0
 12 13  1  0
 13 14  1  0
 14 15  1  0
 15 16  1  0
 16 17  1  0
  7 18  1  0
 18 19  2  0
 19 20  1  0
 20  2  1  0
 19  4  1  0
 17 13  1  0
  1 21  1  0
  1 22  1  0
  1 23  1  0
  5 24  1  0
  6 25  1  0
 10 26  1  0
 11 27  1  0
 11 28  1  0
 12 29  1  0
 12 30  1  0
 13 31  1  0
 14 32  1  0
 14 33  1  0
 15 34  1  0
 15 35  1  0
 16 36  1  0
 17 37  1  0
 17 38  1  0
 18 39  1  0
M  END
>  <Energy>  (18) 
35.470036097189457

>  <compound_id>  (18) 
87440

>  <target_id>  (18) 
1

>  <reference_id>  (18) 
124

>  <inspiration_ids>  (18) 
[68, 124]

>  <energy_score>  (18) 
-22.684310944744766

>  <distance_score>  (18) 
15.355204719503028

>  <path>  (18) 
/opt/xchem-fragalysis-2/maxwin/BulkDock/SCRATCH/511017/C87440-P124/C87440-P124.minimised.mol

>  <scratch_subdir>  (18) 
/opt/xchem-fragalysis-2/maxwin/BulkDock/SCRATCH/511017/C87440-P124

>  <fragmenstein_runtime>  (18) 
47.4444580078125

>  <fragmenstein_outcome>  (18) 
too moved

>  <fragmenstein_mode>  (18) 
expansion

>  <fragmenstein_error>  (18) 


$$$$
C87442-P68
     RDKit          3D

 29 31  0  0  0  0  0  0  0  0999 V2000
    0.7051  -22.5680   19.8572 Cl  0  0  0  0  0  0  0  0  0  0  0  0
    1.1070  -24.0180   18.9857 C   0  0  0  0  0  0  0  0  0  0  0  0
    0.7970  -25.3295   19.3884 C   0  0  0  0  0  0  0  0  0  0  0  0
    1.3650  -26.4157   18.7262 C   0  0  0  0  0  0  0  0  0  0  0  0
    2.3008  -26.1942   17.6962 C   0  0  0  0  0  0  0  0  0  0  0  0
    2.6263  -24.8681   17.2804 C   0  0  0  0  0  0  0  0  0  0  0  0
    3.5126  -24.4385   16.2601 N   0  0  0  0  0  0  0  0  0  0  0  0
    3.5149  -23.1057   16.1422 C   0  0  0  0  0  0  0  0  0  0  0  0
    4.2962  -22.2346   15.0971 C   0  0  0  0  0  0  0  0  0  0  0  0
    4.9278  -20.8422   15.5343 C   0  0  0  0  0  0  0  0  0  0  0  0
    6.0857  -20.3457   14.6482 C   0  0  0  0  0  0  0  0  0  0  0  0
    6.2636  -18.8793   15.0347 C   0  0  0  0  0  0  0  0  0  0  0  0
    4.9207  -18.4025   15.3368 N   0  0  0  0  0  0  0  0  0  0  0  0
    4.0367  -19.5846   15.4932 C   0  0  0  0  0  0  0  0  0  0  0  0
    2.4249  -22.3253   17.1882 S   0  0  0  0  0  0  0  0  0  0  0  0
    1.9689  -23.8203   17.9056 C   0  0  0  0  0  0  0  0  0  0  0  0
    0.1621  -25.5086   20.2478 H   0  0  0  0  0  0  0  0  0  0  0  0
    1.1323  -27.4304   19.0370 H   0  0  0  0  0  0  0  0  0  0  0  0
    2.7819  -27.0297   17.1975 H   0  0  0  0  0  0  0  0  0  0  0  0
    3.6304  -22.0738   14.2399 H   0  0  0  0  0  0  0  0  0  0  0  0
    5.1176  -22.8724   14.7445 H   0  0  0  0  0  0  0  0  0  0  0  0
    5.3249  -20.9830   16.5377 H   0  0  0  0  0  0  0  0  0  0  0  0
    6.9999  -20.9244   14.8133 H   0  0  0  0  0  0  0  0  0  0  0  0
    5.8124  -20.4304   13.5888 H   0  0  0  0  0  0  0  0  0  0  0  0
    6.8952  -18.8030   15.9267 H   0  0  0  0  0  0  0  0  0  0  0  0
    6.7285  -18.2991   14.2328 H   0  0  0  0  0  0  0  0  0  0  0  0
    4.9050  -17.8398   16.1826 H   0  0  0  0  0  0  0  0  0  0  0  0
    3.4229  -19.4898   16.3933 H   0  0  0  0  0  0  0  0  0  0  0  0
    3.3598  -19.6235   14.6323 H   0  0  0  0  0  0  0  0  0  0  0  0
  1  2  1  0
  2  3  2  0
  3  4  1  0
  4  5  2  0
  5  6  1  0
  6  7  1  0
  7  8  2  0
  8  9  1  0
  9 10  1  0
 10 11  1  0
 11 12  1  0
 12 13  1  0
 13 14  1  0
  8 15  1  0
 15 16  1  0
 16  2  1  0
 16  6  2  0
 14 10  1  0
  3 17  1  0
  4 18  1  0
  5 19  1  0
  9 20  1  0
  9 21  1  0
 10 22  1  0
 11 23  1  0
 11 24  1  0
 12 25  1  0
 12 26  1  0
 13 27  1  0
 14 28  1  0
 14 29  1  0
M  END
>  <Energy>  (19) 
37.792112359771636

>  <compound_id>  (19) 
87442

>  <target_id>  (19) 
1

>  <reference_id>  (19) 
68

>  <inspiration_ids>  (19) 
[68, 124]

>  <energy_score>  (19) 
-41.05904988174461

>  <distance_score>  (19) 
17.393675914869302

>  <path>  (19) 
/opt/xchem-fragalysis-2/maxwin/BulkDock/SCRATCH/511017/C87442-P68/C87442-P68.minimised.mol

>  <scratch_subdir>  (19) 
/opt/xchem-fragalysis-2/maxwin/BulkDock/SCRATCH/511017/C87442-P68

>  <fragmenstein_runtime>  (19) 
15.498319149017334

>  <fragmenstein_outcome>  (19) 
too moved

>  <fragmenstein_mode>  (19) 
expansion

>  <fragmenstein_error>  (19) 


$$$$
C87442-P124
     RDKit          3D

 29 31  0  0  0  0  0  0  0  0999 V2000
   -6.8305  -26.4143   19.8209 Cl  0  0  0  0  0  0  0  0  0  0  0  0
   -6.4112  -26.3797   21.4944 C   0  0  0  0  0  0  0  0  0  0  0  0
   -6.7763  -27.4630   22.3095 C   0  0  0  0  0  0  0  0  0  0  0  0
   -6.4628  -27.4593   23.6629 C   0  0  0  0  0  0  0  0  0  0  0  0
   -5.7806  -26.3657   24.2179 C   0  0  0  0  0  0  0  0  0  0  0  0
   -5.3982  -25.2569   23.4145 C   0  0  0  0  0  0  0  0  0  0  0  0
   -4.7067  -24.1064   23.8410 N   0  0  0  0  0  0  0  0  0  0  0  0
   -4.4680  -23.2560   22.8464 C   0  0  0  0  0  0  0  0  0  0  0  0
   -3.4599  -22.0452   22.9552 C   0  0  0  0  0  0  0  0  0  0  0  0
   -3.8138  -20.5118   22.7305 C   0  0  0  0  0  0  0  0  0  0  0  0
   -3.8565  -19.9740   21.2908 C   0  0  0  0  0  0  0  0  0  0  0  0
   -3.4048  -18.5118   21.3644 C   0  0  0  0  0  0  0  0  0  0  0  0
   -2.3911  -18.5064   22.4045 N   0  0  0  0  0  0  0  0  0  0  0  0
   -2.7853  -19.5263   23.3895 C   0  0  0  0  0  0  0  0  0  0  0  0
   -5.1054  -23.8093   21.3359 S   0  0  0  0  0  0  0  0  0  0  0  0
   -5.7158  -25.2806   22.0557 C   0  0  0  0  0  0  0  0  0  0  0  0
   -7.3028  -28.3165   21.8853 H   0  0  0  0  0  0  0  0  0  0  0  0
   -6.7423  -28.3048   24.2900 H   0  0  0  0  0  0  0  0  0  0  0  0
   -5.5315  -26.3580   25.2753 H   0  0  0  0  0  0  0  0  0  0  0  0
   -3.0804  -22.1176   23.9851 H   0  0  0  0  0  0  0  0  0  0  0  0
   -2.6139  -22.3090   22.3185 H   0  0  0  0  0  0  0  0  0  0  0  0
   -4.7938  -20.3297   23.1917 H   0  0  0  0  0  0  0  0  0  0  0  0
   -3.1950  -20.5587   20.6590 H   0  0  0  0  0  0  0  0  0  0  0  0
   -4.8629  -20.0578   20.8675 H   0  0  0  0  0  0  0  0  0  0  0  0
   -3.0147  -18.1553   20.4072 H   0  0  0  0  0  0  0  0  0  0  0  0
   -4.2482  -17.8756   21.6566 H   0  0  0  0  0  0  0  0  0  0  0  0
   -2.3002  -17.5913   22.8386 H   0  0  0  0  0  0  0  0  0  0  0  0
   -3.2645  -19.0413   24.2484 H   0  0  0  0  0  0  0  0  0  0  0  0
   -1.8997  -20.0478   23.7644 H   0  0  0  0  0  0  0  0  0  0  0  0
  1  2  1  0
  2  3  2  0
  3  4  1  0
  4  5  2  0
  5  6  1  0
  6  7  1  0
  7  8  2  0
  8  9  1  0
  9 10  1  0
 10 11  1  0
 11 12  1  0
 12 13  1  0
 13 14  1  0
  8 15  1  0
 15 16  1  0
 16  2  1  0
 16  6  2  0
 14 10  1  0
  3 17  1  0
  4 18  1  0
  5 19  1  0
  9 20  1  0
  9 21  1  0
 10 22  1  0
 11 23  1  0
 11 24  1  0
 12 25  1  0
 12 26  1  0
 13 27  1  0
 14 28  1  0
 14 29  1  0
M  END
>  <Energy>  (20) 
36.557617070769204

>  <compound_id>  (20) 
87442

>  <target_id>  (20) 
1

>  <reference_id>  (20) 
124

>  <inspiration_ids>  (20) 
[68, 124]

>  <energy_score>  (20) 
-42.29354517074711

>  <distance_score>  (20) 
16.880051663912326

>  <path>  (20) 
/opt/xchem-fragalysis-2/maxwin/BulkDock/SCRATCH/511017/C87442-P124/C87442-P124.minimised.mol

>  <scratch_subdir>  (20) 
/opt/xchem-fragalysis-2/maxwin/BulkDock/SCRATCH/511017/C87442-P124

>  <fragmenstein_runtime>  (20) 
8.249533653259277

>  <fragmenstein_outcome>  (20) 
too moved

>  <fragmenstein_mode>  (20) 
expansion

>  <fragmenstein_error>  (20) 


$$$$
C87454-P68
     RDKit          3D

 32 34  0  0  0  0  0  0  0  0999 V2000
   -5.0079  -29.1078   18.7702 C   0  0  0  0  0  0  0  0  0  0  0  0
   -3.6147  -28.5356   18.8505 C   0  0  0  0  0  0  0  0  0  0  0  0
   -2.6140  -29.1372   19.6159 C   0  0  0  0  0  0  0  0  0  0  0  0
   -1.3136  -28.5929   19.6713 C   0  0  0  0  0  0  0  0  0  0  0  0
   -0.9764  -27.4293   18.9309 C   0  0  0  0  0  0  0  0  0  0  0  0
    0.2923  -26.8131   18.8123 N   0  0  0  0  0  0  0  0  0  0  0  0
    0.2708  -25.7601   17.9923 C   0  0  0  0  0  0  0  0  0  0  0  0
    1.5555  -25.0685   17.3539 C   0  0  0  0  0  0  0  0  0  0  0  0
    2.0437  -23.5768   17.6180 C   0  0  0  0  0  0  0  0  0  0  0  0
    1.4252  -22.4454   16.8077 C   0  0  0  0  0  0  0  0  0  0  0  0
    2.4419  -21.3025   16.8910 C   0  0  0  0  0  0  0  0  0  0  0  0
    3.7328  -21.9714   16.6965 N   0  0  0  0  0  0  0  0  0  0  0  0
    3.5412  -23.3432   17.2328 C   0  0  0  0  0  0  0  0  0  0  0  0
   -1.3171  -25.4568   17.3538 S   0  0  0  0  0  0  0  0  0  0  0  0
   -1.9873  -26.8310   18.1846 C   0  0  0  0  0  0  0  0  0  0  0  0
   -3.3078  -27.3536   18.1506 C   0  0  0  0  0  0  0  0  0  0  0  0
   -5.6830  -28.5293   19.4054 H   0  0  0  0  0  0  0  0  0  0  0  0
   -5.3735  -29.0629   17.7385 H   0  0  0  0  0  0  0  0  0  0  0  0
   -5.0257  -30.1580   19.0675 H   0  0  0  0  0  0  0  0  0  0  0  0
   -2.8042  -30.0556   20.1648 H   0  0  0  0  0  0  0  0  0  0  0  0
   -0.5408  -29.0852   20.2542 H   0  0  0  0  0  0  0  0  0  0  0  0
    2.3820  -25.7190   17.6761 H   0  0  0  0  0  0  0  0  0  0  0  0
    1.4745  -25.2110   16.2675 H   0  0  0  0  0  0  0  0  0  0  0  0
    1.8817  -23.3433   18.6738 H   0  0  0  0  0  0  0  0  0  0  0  0
    0.4714  -22.1814   17.2490 H   0  0  0  0  0  0  0  0  0  0  0  0
    1.2663  -22.7509   15.7666 H   0  0  0  0  0  0  0  0  0  0  0  0
    2.4024  -20.8324   17.8779 H   0  0  0  0  0  0  0  0  0  0  0  0
    2.2810  -20.5322   16.1337 H   0  0  0  0  0  0  0  0  0  0  0  0
    3.8891  -22.0448   15.6914 H   0  0  0  0  0  0  0  0  0  0  0  0
    3.8431  -24.0565   16.4559 H   0  0  0  0  0  0  0  0  0  0  0  0
    4.2064  -23.5098   18.0812 H   0  0  0  0  0  0  0  0  0  0  0  0
   -4.0640  -26.8538   17.5512 H   0  0  0  0  0  0  0  0  0  0  0  0
  1  2  1  0
  2  3  2  0
  3  4  1  0
  4  5  2  0
  5  6  1  0
  6  7  2  0
  7  8  1  0
  8  9  1  0
  9 10  1  0
 10 11  1  0
 11 12  1  0
 12 13  1  0
  7 14  1  0
 14 15  1  0
 15 16  2  0
 16  2  1  0
 15  5  1  0
 13  9  1  0
  1 17  1  0
  1 18  1  0
  1 19  1  0
  3 20  1  0
  4 21  1  0
  8 22  1  0
  8 23  1  0
  9 24  1  0
 10 25  1  0
 10 26  1  0
 11 27  1  0
 11 28  1  0
 12 29  1  0
 13 30  1  0
 13 31  1  0
 16 32  1  0
M  END
>  <Energy>  (21) 
43.685145716978276

>  <compound_id>  (21) 
87454

>  <target_id>  (21) 
1

>  <reference_id>  (21) 
68

>  <inspiration_ids>  (21) 
[68, 124]

>  <energy_score>  (21) 
-32.76520329836933

>  <distance_score>  (21) 
15.592991878367473

>  <path>  (21) 
/opt/xchem-fragalysis-2/maxwin/BulkDock/SCRATCH/511017/C87454-P68/C87454-P68.minimised.mol

>  <scratch_subdir>  (21) 
/opt/xchem-fragalysis-2/maxwin/BulkDock/SCRATCH/511017/C87454-P68

>  <fragmenstein_runtime>  (21) 
9.455659627914429

>  <fragmenstein_outcome>  (21) 
too moved

>  <fragmenstein_mode>  (21) 
expansion

>  <fragmenstein_error>  (21) 


$$$$
C87454-P124
     RDKit          3D

 32 34  0  0  0  0  0  0  0  0999 V2000
   -5.4282  -29.8203   20.4044 C   0  0  0  0  0  0  0  0  0  0  0  0
   -4.0816  -29.2422   20.0379 C   0  0  0  0  0  0  0  0  0  0  0  0
   -2.9232  -29.7442   20.6314 C   0  0  0  0  0  0  0  0  0  0  0  0
   -1.6549  -29.2348   20.2838 C   0  0  0  0  0  0  0  0  0  0  0  0
   -1.5137  -28.2027   19.3170 C   0  0  0  0  0  0  0  0  0  0  0  0
   -0.3112  -27.6132   18.8507 N   0  0  0  0  0  0  0  0  0  0  0  0
   -0.5285  -26.6741   17.9296 C   0  0  0  0  0  0  0  0  0  0  0  0
    0.5789  -26.0562   16.9577 C   0  0  0  0  0  0  0  0  0  0  0  0
    1.2759  -24.6233   17.1227 C   0  0  0  0  0  0  0  0  0  0  0  0
    0.8025  -23.4877   16.1961 C   0  0  0  0  0  0  0  0  0  0  0  0
    1.9745  -22.5003   16.1317 C   0  0  0  0  0  0  0  0  0  0  0  0
    3.1607  -23.3514   16.0304 N   0  0  0  0  0  0  0  0  0  0  0  0
    2.7801  -24.6353   16.6802 C   0  0  0  0  0  0  0  0  0  0  0  0
   -2.2268  -26.4789   17.5851 S   0  0  0  0  0  0  0  0  0  0  0  0
   -2.6767  -27.7170   18.7248 C   0  0  0  0  0  0  0  0  0  0  0  0
   -3.9615  -28.2285   19.0642 C   0  0  0  0  0  0  0  0  0  0  0  0
   -6.2279  -29.1081   20.1784 H   0  0  0  0  0  0  0  0  0  0  0  0
   -5.5956  -30.7440   19.8432 H   0  0  0  0  0  0  0  0  0  0  0  0
   -5.4745  -30.0371   21.4766 H   0  0  0  0  0  0  0  0  0  0  0  0
   -2.9874  -30.5381   21.3736 H   0  0  0  0  0  0  0  0  0  0  0  0
   -0.7608  -29.6328   20.7541 H   0  0  0  0  0  0  0  0  0  0  0  0
    1.3860  -26.8017   17.0092 H   0  0  0  0  0  0  0  0  0  0  0  0
    0.1790  -26.1272   15.9374 H   0  0  0  0  0  0  0  0  0  0  0  0
    1.1888  -24.3082   18.1670 H   0  0  0  0  0  0  0  0  0  0  0  0
    0.6007  -23.8833   15.1920 H   0  0  0  0  0  0  0  0  0  0  0  0
   -0.1167  -23.0319   16.5513 H   0  0  0  0  0  0  0  0  0  0  0  0
    2.0521  -21.8998   17.0392 H   0  0  0  0  0  0  0  0  0  0  0  0
    1.8958  -21.8249   15.2757 H   0  0  0  0  0  0  0  0  0  0  0  0
    3.3354  -23.5405   15.0444 H   0  0  0  0  0  0  0  0  0  0  0  0
    2.9406  -25.4337   15.9445 H   0  0  0  0  0  0  0  0  0  0  0  0
    3.4401  -24.8626   17.5213 H   0  0  0  0  0  0  0  0  0  0  0  0
   -4.8446  -27.8288   18.5737 H   0  0  0  0  0  0  0  0  0  0  0  0
  1  2  1  0
  2  3  2  0
  3  4  1  0
  4  5  2  0
  5  6  1  0
  6  7  2  0
  7  8  1  0
  8  9  1  0
  9 10  1  0
 10 11  1  0
 11 12  1  0
 12 13  1  0
  7 14  1  0
 14 15  1  0
 15 16  2  0
 16  2  1  0
 15  5  1  0
 13  9  1  0
  1 17  1  0
  1 18  1  0
  1 19  1  0
  3 20  1  0
  4 21  1  0
  8 22  1  0
  8 23  1  0
  9 24  1  0
 10 25  1  0
 10 26  1  0
 11 27  1  0
 11 28  1  0
 12 29  1  0
 13 30  1  0
 13 31  1  0
 16 32  1  0
M  END
>  <Energy>  (22) 
46.105422583863451

>  <compound_id>  (22) 
87454

>  <target_id>  (22) 
1

>  <reference_id>  (22) 
124

>  <inspiration_ids>  (22) 
[68, 124]

>  <energy_score>  (22) 
-30.344926431484225

>  <distance_score>  (22) 
15.68130835483408

>  <path>  (22) 
/opt/xchem-fragalysis-2/maxwin/BulkDock/SCRATCH/511017/C87454-P124/C87454-P124.minimised.mol

>  <scratch_subdir>  (22) 
/opt/xchem-fragalysis-2/maxwin/BulkDock/SCRATCH/511017/C87454-P124

>  <fragmenstein_runtime>  (22) 
10.93696665763855

>  <fragmenstein_outcome>  (22) 
too moved

>  <fragmenstein_mode>  (22) 
expansion

>  <fragmenstein_error>  (22) 


$$$$
C87455-P68
     RDKit          3D

 31 33  0  0  0  0  0  0  0  0999 V2000
   -5.3545  -30.0326   18.3267 C   0  0  0  0  0  0  0  0  0  0  0  0
   -4.4311  -28.8737   18.5919 C   0  0  0  0  0  0  0  0  0  0  0  0
   -4.9839  -27.6344   18.9088 C   0  0  0  0  0  0  0  0  0  0  0  0
   -4.1763  -26.4875   18.9565 C   0  0  0  0  0  0  0  0  0  0  0  0
   -2.7877  -26.5593   18.6841 C   0  0  0  0  0  0  0  0  0  0  0  0
   -1.9037  -25.4743   18.5295 N   0  0  0  0  0  0  0  0  0  0  0  0
   -0.6487  -25.8411   18.3792 C   0  0  0  0  0  0  0  0  0  0  0  0
    0.4857  -25.0232   18.3628 N   0  0  0  0  0  0  0  0  0  0  0  0
    0.6071  -23.5695   17.9330 C   0  0  0  0  0  0  0  0  0  0  0  0
    1.8328  -23.3305   17.0223 C   0  0  0  0  0  0  0  0  0  0  0  0
    2.2518  -21.8699   17.2037 C   0  0  0  0  0  0  0  0  0  0  0  0
    1.7832  -21.4602   18.5227 N   0  0  0  0  0  0  0  0  0  0  0  0
    0.9619  -22.5658   19.0590 C   0  0  0  0  0  0  0  0  0  0  0  0
   -0.5070  -27.5968   18.3330 S   0  0  0  0  0  0  0  0  0  0  0  0
   -2.2249  -27.8166   18.4985 C   0  0  0  0  0  0  0  0  0  0  0  0
   -3.0293  -28.9891   18.4552 C   0  0  0  0  0  0  0  0  0  0  0  0
   -5.9162  -30.3024   19.2158 H   0  0  0  0  0  0  0  0  0  0  0  0
   -4.8004  -30.9051   17.9722 H   0  0  0  0  0  0  0  0  0  0  0  0
   -6.0631  -29.7644   17.5352 H   0  0  0  0  0  0  0  0  0  0  0  0
   -6.0566  -27.5257   19.0512 H   0  0  0  0  0  0  0  0  0  0  0  0
   -4.6182  -25.5121   19.1398 H   0  0  0  0  0  0  0  0  0  0  0  0
    1.3760  -25.5125   18.3273 H   0  0  0  0  0  0  0  0  0  0  0  0
   -0.3024  -23.2636   17.4074 H   0  0  0  0  0  0  0  0  0  0  0  0
    2.6611  -23.9833   17.3271 H   0  0  0  0  0  0  0  0  0  0  0  0
    1.6023  -23.5625   15.9774 H   0  0  0  0  0  0  0  0  0  0  0  0
    3.3365  -21.7588   17.1063 H   0  0  0  0  0  0  0  0  0  0  0  0
    1.7936  -21.2429   16.4390 H   0  0  0  0  0  0  0  0  0  0  0  0
    2.5958  -21.3346   19.1416 H   0  0  0  0  0  0  0  0  0  0  0  0
    0.0719  -22.1631   19.5387 H   0  0  0  0  0  0  0  0  0  0  0  0
    1.4762  -23.0764   19.8650 H   0  0  0  0  0  0  0  0  0  0  0  0
   -2.5641  -29.9497   18.2517 H   0  0  0  0  0  0  0  0  0  0  0  0
  1  2  1  0
  2  3  2  0
  3  4  1  0
  4  5  2  0
  5  6  1  0
  6  7  2  0
  7  8  1  0
  8  9  1  0
  9 10  1  0
 10 11  1  0
 11 12  1  0
 12 13  1  0
  7 14  1  0
 14 15  1  0
 15 16  2  0
 16  2  1  0
 15  5  1  0
 13  9  1  0
  1 17  1  0
  1 18  1  0
  1 19  1  0
  3 20  1  0
  4 21  1  0
  8 22  1  0
  9 23  1  0
 10 24  1  0
 10 25  1  0
 11 26  1  0
 11 27  1  0
 12 28  1  0
 13 29  1  0
 13 30  1  0
 16 31  1  0
M  END
>  <Energy>  (23) 
26.077875620029445

>  <compound_id>  (23) 
87455

>  <target_id>  (23) 
1

>  <reference_id>  (23) 
68

>  <inspiration_ids>  (23) 
[68, 124]

>  <energy_score>  (23) 
-58.601503503125

>  <distance_score>  (23) 
15.637800221975624

>  <path>  (23) 
/opt/xchem-fragalysis-2/maxwin/BulkDock/SCRATCH/511017/C87455-P68/C87455-P68.minimised.mol

>  <scratch_subdir>  (23) 
/opt/xchem-fragalysis-2/maxwin/BulkDock/SCRATCH/511017/C87455-P68

>  <fragmenstein_runtime>  (23) 
11.47208023071289

>  <fragmenstein_outcome>  (23) 
too moved

>  <fragmenstein_mode>  (23) 
expansion

>  <fragmenstein_error>  (23) 


$$$$
C87455-P124
     RDKit          3D

 31 33  0  0  0  0  0  0  0  0999 V2000
   -5.7130  -29.7615   20.9019 C   0  0  0  0  0  0  0  0  0  0  0  0
   -4.3633  -29.4080   20.3225 C   0  0  0  0  0  0  0  0  0  0  0  0
   -3.3127  -30.3216   20.4106 C   0  0  0  0  0  0  0  0  0  0  0  0
   -2.0379  -30.0037   19.9025 C   0  0  0  0  0  0  0  0  0  0  0  0
   -1.7826  -28.7445   19.2970 C   0  0  0  0  0  0  0  0  0  0  0  0
   -0.5721  -28.2917   18.7321 N   0  0  0  0  0  0  0  0  0  0  0  0
   -0.6490  -27.0552   18.2518 C   0  0  0  0  0  0  0  0  0  0  0  0
    0.4079  -26.4855   17.5338 N   0  0  0  0  0  0  0  0  0  0  0  0
    0.9502  -25.0695   17.5484 C   0  0  0  0  0  0  0  0  0  0  0  0
    0.3851  -24.1464   16.4630 C   0  0  0  0  0  0  0  0  0  0  0  0
    1.5075  -23.1823   16.0245 C   0  0  0  0  0  0  0  0  0  0  0  0
    2.7628  -23.6742   16.5865 N   0  0  0  0  0  0  0  0  0  0  0  0
    2.4461  -25.0296   17.0894 C   0  0  0  0  0  0  0  0  0  0  0  0
   -2.2360  -26.3874   18.4577 S   0  0  0  0  0  0  0  0  0  0  0  0
   -2.8316  -27.8339   19.2291 C   0  0  0  0  0  0  0  0  0  0  0  0
   -4.1236  -28.1465   19.7364 C   0  0  0  0  0  0  0  0  0  0  0  0
   -5.6897  -29.6473   21.9900 H   0  0  0  0  0  0  0  0  0  0  0  0
   -6.4923  -29.1067   20.5001 H   0  0  0  0  0  0  0  0  0  0  0  0
   -5.9760  -30.7947   20.6548 H   0  0  0  0  0  0  0  0  0  0  0  0
   -3.4702  -31.2938   20.8749 H   0  0  0  0  0  0  0  0  0  0  0  0
   -1.2299  -30.7259   19.9698 H   0  0  0  0  0  0  0  0  0  0  0  0
    1.1797  -27.1506   17.5369 H   0  0  0  0  0  0  0  0  0  0  0  0
    0.8468  -24.6296   18.5463 H   0  0  0  0  0  0  0  0  0  0  0  0
    0.0674  -24.7418   15.5970 H   0  0  0  0  0  0  0  0  0  0  0  0
   -0.4972  -23.6212   16.8223 H   0  0  0  0  0  0  0  0  0  0  0  0
    1.3296  -22.1635   16.3642 H   0  0  0  0  0  0  0  0  0  0  0  0
    1.5686  -23.1527   14.9313 H   0  0  0  0  0  0  0  0  0  0  0  0
    2.9604  -23.1106   17.4312 H   0  0  0  0  0  0  0  0  0  0  0  0
    2.6054  -25.7431   16.2699 H   0  0  0  0  0  0  0  0  0  0  0  0
    3.1193  -25.3332   17.8973 H   0  0  0  0  0  0  0  0  0  0  0  0
   -4.9185  -27.4086   19.6746 H   0  0  0  0  0  0  0  0  0  0  0  0
  1  2  1  0
  2  3  2  0
  3  4  1  0
  4  5  2  0
  5  6  1  0
  6  7  2  0
  7  8  1  0
  8  9  1  0
  9 10  1  0
 10 11  1  0
 11 12  1  0
 12 13  1  0
  7 14  1  0
 14 15  1  0
 15 16  2  0
 16  2  1  0
 15  5  1  0
 13  9  1  0
  1 17  1  0
  1 18  1  0
  1 19  1  0
  3 20  1  0
  4 21  1  0
  8 22  1  0
  9 23  1  0
 10 24  1  0
 10 25  1  0
 11 26  1  0
 11 27  1  0
 12 28  1  0
 13 29  1  0
 13 30  1  0
 16 31  1  0
M  END
>  <Energy>  (24) 
26.515760054290517

>  <compound_id>  (24) 
87455

>  <target_id>  (24) 
1

>  <reference_id>  (24) 
124

>  <inspiration_ids>  (24) 
[68, 124]

>  <energy_score>  (24) 
-58.16361906886499

>  <distance_score>  (24) 
15.746216370087273

>  <path>  (24) 
/opt/xchem-fragalysis-2/maxwin/BulkDock/SCRATCH/511017/C87455-P124/C87455-P124.minimised.mol

>  <scratch_subdir>  (24) 
/opt/xchem-fragalysis-2/maxwin/BulkDock/SCRATCH/511017/C87455-P124

>  <fragmenstein_runtime>  (24) 
12.209775447845459

>  <fragmenstein_outcome>  (24) 
too moved

>  <fragmenstein_mode>  (24) 
expansion

>  <fragmenstein_error>  (24) 


$$$$
C87462-P68
     RDKit          3D

 30 32  0  0  0  0  0  0  0  0999 V2000
   -3.2529  -26.9990   18.2761 C   0  0  0  0  0  0  0  0  0  0  0  0
   -2.1314  -26.1610   18.1549 C   0  0  0  0  0  0  0  0  0  0  0  0
   -0.9198  -26.4052   18.8358 C   0  0  0  0  0  0  0  0  0  0  0  0
    0.2001  -25.5437   18.7601 O   0  0  0  0  0  0  0  0  0  0  0  0
    0.2992  -24.5086   17.7247 C   0  0  0  0  0  0  0  0  0  0  0  0
    1.5500  -23.5201   17.8401 C   0  0  0  0  0  0  0  0  0  0  0  0
    1.9272  -22.7833   16.5419 C   0  0  0  0  0  0  0  0  0  0  0  0
    2.6193  -21.5027   16.9798 C   0  0  0  0  0  0  0  0  0  0  0  0
    1.9500  -21.1248   18.2223 N   0  0  0  0  0  0  0  0  0  0  0  0
    1.3551  -22.3432   18.8009 C   0  0  0  0  0  0  0  0  0  0  0  0
   -0.8916  -27.5838   19.6688 C   0  0  0  0  0  0  0  0  0  0  0  0
    0.1844  -28.0502   20.4325 N   0  0  0  0  0  0  0  0  0  0  0  0
   -0.1312  -29.1657   21.0484 C   0  0  0  0  0  0  0  0  0  0  0  0
   -1.7053  -29.7447   20.7968 S   0  0  0  0  0  0  0  0  0  0  0  0
   -2.0295  -28.4090   19.7571 C   0  0  0  0  0  0  0  0  0  0  0  0
   -3.2223  -28.1371   19.0746 C   0  0  0  0  0  0  0  0  0  0  0  0
   -4.1611  -26.7562   17.7277 H   0  0  0  0  0  0  0  0  0  0  0  0
   -2.2294  -25.2949   17.5084 H   0  0  0  0  0  0  0  0  0  0  0  0
   -0.6112  -23.9025   17.7279 H   0  0  0  0  0  0  0  0  0  0  0  0
    0.3688  -25.0329   16.7645 H   0  0  0  0  0  0  0  0  0  0  0  0
    2.4149  -24.1140   18.1521 H   0  0  0  0  0  0  0  0  0  0  0  0
    1.0349  -22.5575   15.9625 H   0  0  0  0  0  0  0  0  0  0  0  0
    2.5772  -23.3990   15.9115 H   0  0  0  0  0  0  0  0  0  0  0  0
    2.5511  -20.7133   16.2267 H   0  0  0  0  0  0  0  0  0  0  0  0
    3.6784  -21.7089   17.1648 H   0  0  0  0  0  0  0  0  0  0  0  0
    2.6831  -20.8334   18.8760 H   0  0  0  0  0  0  0  0  0  0  0  0
    0.2964  -22.1928   18.9897 H   0  0  0  0  0  0  0  0  0  0  0  0
    1.7658  -22.5279   19.7893 H   0  0  0  0  0  0  0  0  0  0  0  0
    0.5727  -29.6863   21.6834 H   0  0  0  0  0  0  0  0  0  0  0  0
   -4.0834  -28.7917   19.1575 H   0  0  0  0  0  0  0  0  0  0  0  0
  1  2  2  0
  2  3  1  0
  3  4  1  0
  4  5  1  0
  5  6  1  0
  6  7  1  0
  7  8  1  0
  8  9  1  0
  9 10  1  0
  3 11  2  0
 11 12  1  0
 12 13  2  0
 13 14  1  0
 14 15  1  0
 15 16  2  0
 16  1  1  0
 10  6  1  0
 15 11  1  0
  1 17  1  0
  2 18  1  0
  5 19  1  0
  5 20  1  0
  6 21  1  0
  7 22  1  0
  7 23  1  0
  8 24  1  0
  8 25  1  0
  9 26  1  0
 10 27  1  0
 10 28  1  0
 13 29  1  0
 16 30  1  0
M  END
>  <Energy>  (25) 
57.694333746153305

>  <compound_id>  (25) 
87462

>  <target_id>  (25) 
1

>  <reference_id>  (25) 
68

>  <inspiration_ids>  (25) 
[68, 124]

>  <energy_score>  (25) 
-68.36141448630428

>  <distance_score>  (25) 
16.44175454343136

>  <path>  (25) 
/opt/xchem-fragalysis-2/maxwin/BulkDock/SCRATCH/511017/C87462-P68/C87462-P68.minimised.mol

>  <scratch_subdir>  (25) 
/opt/xchem-fragalysis-2/maxwin/BulkDock/SCRATCH/511017/C87462-P68

>  <fragmenstein_runtime>  (25) 
22.100443363189697

>  <fragmenstein_outcome>  (25) 
too moved

>  <fragmenstein_mode>  (25) 
expansion

>  <fragmenstein_error>  (25) 


$$$$
C87462-P124
     RDKit          3D

 30 32  0  0  0  0  0  0  0  0999 V2000
   -8.2630  -24.9465   24.5612 C   0  0  0  0  0  0  0  0  0  0  0  0
   -7.5011  -23.8775   25.0613 C   0  0  0  0  0  0  0  0  0  0  0  0
   -6.1914  -24.0433   25.5586 C   0  0  0  0  0  0  0  0  0  0  0  0
   -5.4309  -22.9554   26.0768 O   0  0  0  0  0  0  0  0  0  0  0  0
   -5.8035  -21.5742   25.7432 C   0  0  0  0  0  0  0  0  0  0  0  0
   -4.9366  -20.4033   26.3945 C   0  0  0  0  0  0  0  0  0  0  0  0
   -3.4282  -20.3678   26.2276 C   0  0  0  0  0  0  0  0  0  0  0  0
   -3.0598  -18.9405   26.6556 C   0  0  0  0  0  0  0  0  0  0  0  0
   -4.1260  -18.1047   26.1103 N   0  0  0  0  0  0  0  0  0  0  0  0
   -5.3102  -18.9685   25.9478 C   0  0  0  0  0  0  0  0  0  0  0  0
   -5.6761  -25.3994   25.5394 C   0  0  0  0  0  0  0  0  0  0  0  0
   -4.4296  -25.8410   25.9993 N   0  0  0  0  0  0  0  0  0  0  0  0
   -4.2827  -27.1298   25.7745 C   0  0  0  0  0  0  0  0  0  0  0  0
   -5.5951  -27.9379   25.0497 S   0  0  0  0  0  0  0  0  0  0  0  0
   -6.4623  -26.4431   25.0070 C   0  0  0  0  0  0  0  0  0  0  0  0
   -7.7583  -26.2419   24.5177 C   0  0  0  0  0  0  0  0  0  0  0  0
   -9.2702  -24.7585   24.1929 H   0  0  0  0  0  0  0  0  0  0  0  0
   -7.9713  -22.8990   25.0569 H   0  0  0  0  0  0  0  0  0  0  0  0
   -5.7991  -21.4644   24.6563 H   0  0  0  0  0  0  0  0  0  0  0  0
   -6.8281  -21.4103   26.0966 H   0  0  0  0  0  0  0  0  0  0  0  0
   -5.1207  -20.4781   27.4771 H   0  0  0  0  0  0  0  0  0  0  0  0
   -3.1736  -20.5786   25.1896 H   0  0  0  0  0  0  0  0  0  0  0  0
   -2.9535  -21.1124   26.8717 H   0  0  0  0  0  0  0  0  0  0  0  0
   -3.0742  -18.8775   27.7508 H   0  0  0  0  0  0  0  0  0  0  0  0
   -2.0772  -18.6080   26.3239 H   0  0  0  0  0  0  0  0  0  0  0  0
   -4.3260  -17.3277   26.7394 H   0  0  0  0  0  0  0  0  0  0  0  0
   -5.6288  -18.9499   24.9017 H   0  0  0  0  0  0  0  0  0  0  0  0
   -6.1449  -18.5931   26.5501 H   0  0  0  0  0  0  0  0  0  0  0  0
   -3.3745  -27.6557   26.0368 H   0  0  0  0  0  0  0  0  0  0  0  0
   -8.3458  -27.0652   24.1208 H   0  0  0  0  0  0  0  0  0  0  0  0
  1  2  2  0
  2  3  1  0
  3  4  1  0
  4  5  1  0
  5  6  1  0
  6  7  1  0
  7  8  1  0
  8  9  1  0
  9 10  1  0
  3 11  2  0
 11 12  1  0
 12 13  2  0
 13 14  1  0
 14 15  1  0
 15 16  2  0
 16  1  1  0
 10  6  1  0
 15 11  1  0
  1 17  1  0
  2 18  1  0
  5 19  1  0
  5 20  1  0
  6 21  1  0
  7 22  1  0
  7 23  1  0
  8 24  1  0
  8 25  1  0
  9 26  1  0
 10 27  1  0
 10 28  1  0
 13 29  1  0
 16 30  1  0
M  END
>  <Energy>  (26) 
58.412642898128176

>  <compound_id>  (26) 
87462

>  <target_id>  (26) 
1

>  <reference_id>  (26) 
124

>  <inspiration_ids>  (26) 
[68, 124]

>  <energy_score>  (26) 
-67.64310533432916

>  <distance_score>  (26) 
17.946612759189925

>  <path>  (26) 
/opt/xchem-fragalysis-2/maxwin/BulkDock/SCRATCH/511017/C87462-P124/C87462-P124.minimised.mol

>  <scratch_subdir>  (26) 
/opt/xchem-fragalysis-2/maxwin/BulkDock/SCRATCH/511017/C87462-P124

>  <fragmenstein_runtime>  (26) 
11.007476329803467

>  <fragmenstein_outcome>  (26) 
too moved

>  <fragmenstein_mode>  (26) 
expansion

>  <fragmenstein_error>  (26) 


$$$$
C87463-P68
     RDKit          3D

 32 34  0  0  0  0  0  0  0  0999 V2000
   -9.7015  -24.1110   20.7152 C   0  0  0  0  0  0  0  0  0  0  0  0
   -9.5318  -25.4979   20.4532 O   0  0  0  0  0  0  0  0  0  0  0  0
   -8.3815  -25.8427   19.7471 C   0  0  0  0  0  0  0  0  0  0  0  0
   -8.1587  -27.2302   19.6960 C   0  0  0  0  0  0  0  0  0  0  0  0
   -7.0676  -27.7443   19.0058 C   0  0  0  0  0  0  0  0  0  0  0  0
   -6.1585  -26.8883   18.3749 C   0  0  0  0  0  0  0  0  0  0  0  0
   -6.3960  -25.4960   18.4023 C   0  0  0  0  0  0  0  0  0  0  0  0
   -5.4789  -24.2037   17.6753 S   0  0  0  0  0  0  0  0  0  0  0  0
   -6.6425  -23.0212   18.1643 C   0  0  0  0  0  0  0  0  0  0  0  0
   -6.6831  -21.6778   17.8083 N   0  0  0  0  0  0  0  0  0  0  0  0
   -5.5959  -20.7536   17.3615 C   0  0  0  0  0  0  0  0  0  0  0  0
   -5.7835  -19.3096   17.8833 C   0  0  0  0  0  0  0  0  0  0  0  0
   -5.1010  -18.3694   16.8833 C   0  0  0  0  0  0  0  0  0  0  0  0
   -5.0471  -19.0819   15.6099 N   0  0  0  0  0  0  0  0  0  0  0  0
   -5.5639  -20.4498   15.8451 C   0  0  0  0  0  0  0  0  0  0  0  0
   -7.5973  -23.5521   18.9118 N   0  0  0  0  0  0  0  0  0  0  0  0
   -7.4979  -24.9501   19.0596 C   0  0  0  0  0  0  0  0  0  0  0  0
   -8.8266  -23.6836   21.2160 H   0  0  0  0  0  0  0  0  0  0  0  0
  -10.5502  -24.0069   21.3988 H   0  0  0  0  0  0  0  0  0  0  0  0
   -9.9548  -23.5684   19.7995 H   0  0  0  0  0  0  0  0  0  0  0  0
   -8.8547  -27.8995   20.1984 H   0  0  0  0  0  0  0  0  0  0  0  0
   -6.9112  -28.8191   18.9539 H   0  0  0  0  0  0  0  0  0  0  0  0
   -5.2976  -27.2897   17.8473 H   0  0  0  0  0  0  0  0  0  0  0  0
   -7.4953  -21.1990   18.1884 H   0  0  0  0  0  0  0  0  0  0  0  0
   -4.6495  -21.1689   17.6942 H   0  0  0  0  0  0  0  0  0  0  0  0
   -6.8554  -19.0696   17.9089 H   0  0  0  0  0  0  0  0  0  0  0  0
   -5.4178  -19.1842   18.9050 H   0  0  0  0  0  0  0  0  0  0  0  0
   -4.0939  -18.1024   17.1861 H   0  0  0  0  0  0  0  0  0  0  0  0
   -5.6650  -17.4369   16.7802 H   0  0  0  0  0  0  0  0  0  0  0  0
   -4.0918  -19.1029   15.2544 H   0  0  0  0  0  0  0  0  0  0  0  0
   -4.9706  -21.1944   15.3035 H   0  0  0  0  0  0  0  0  0  0  0  0
   -6.5798  -20.5012   15.4342 H   0  0  0  0  0  0  0  0  0  0  0  0
  1  2  1  0
  2  3  1  0
  3  4  2  0
  4  5  1  0
  5  6  2  0
  6  7  1  0
  7  8  1  0
  8  9  1  0
  9 10  1  0
 10 11  1  0
 11 12  1  0
 12 13  1  0
 13 14  1  0
 14 15  1  0
  9 16  2  0
 16 17  1  0
 17  3  1  0
 17  7  2  0
 15 11  1  0
  1 18  1  0
  1 19  1  0
  1 20  1  0
  4 21  1  0
  5 22  1  0
  6 23  1  0
 10 24  1  0
 11 25  1  0
 12 26  1  0
 12 27  1  0
 13 28  1  0
 13 29  1  0
 14 30  1  0
 15 31  1  0
 15 32  1  0
M  END
>  <Energy>  (27) 
38.919486940323466

>  <compound_id>  (27) 
87463

>  <target_id>  (27) 
1

>  <reference_id>  (27) 
68

>  <inspiration_ids>  (27) 
[68, 124]

>  <energy_score>  (27) 
-33.714086212797895

>  <distance_score>  (27) 
17.580580299099303

>  <path>  (27) 
/opt/xchem-fragalysis-2/maxwin/BulkDock/SCRATCH/511017/C87463-P68/C87463-P68.minimised.mol

>  <scratch_subdir>  (27) 
/opt/xchem-fragalysis-2/maxwin/BulkDock/SCRATCH/511017/C87463-P68

>  <fragmenstein_runtime>  (27) 
16.644961833953857

>  <fragmenstein_outcome>  (27) 
too moved

>  <fragmenstein_mode>  (27) 
expansion

>  <fragmenstein_error>  (27) 


$$$$
C87463-P124
     RDKit          3D

 32 34  0  0  0  0  0  0  0  0999 V2000
    0.2414  -26.9732   21.9196 C   0  0  0  0  0  0  0  0  0  0  0  0
   -0.8729  -27.8335   21.7169 O   0  0  0  0  0  0  0  0  0  0  0  0
   -1.2965  -27.9804   20.3965 C   0  0  0  0  0  0  0  0  0  0  0  0
   -2.4013  -28.8495   20.2662 C   0  0  0  0  0  0  0  0  0  0  0  0
   -2.9536  -29.1133   19.0198 C   0  0  0  0  0  0  0  0  0  0  0  0
   -2.4126  -28.5178   17.8735 C   0  0  0  0  0  0  0  0  0  0  0  0
   -1.3088  -27.6370   18.0018 C   0  0  0  0  0  0  0  0  0  0  0  0
   -0.4498  -26.7536   16.7675 S   0  0  0  0  0  0  0  0  0  0  0  0
    0.5922  -25.9915   17.9266 C   0  0  0  0  0  0  0  0  0  0  0  0
    1.5811  -25.0419   17.6706 N   0  0  0  0  0  0  0  0  0  0  0  0
    2.0264  -24.3687   16.4077 C   0  0  0  0  0  0  0  0  0  0  0  0
    3.5635  -24.1476   16.3507 C   0  0  0  0  0  0  0  0  0  0  0  0
    3.8123  -22.6622   16.0488 C   0  0  0  0  0  0  0  0  0  0  0  0
    2.6343  -21.9801   16.5714 N   0  0  0  0  0  0  0  0  0  0  0  0
    1.5357  -22.9149   16.2403 C   0  0  0  0  0  0  0  0  0  0  0  0
    0.3506  -26.4376   19.1525 N   0  0  0  0  0  0  0  0  0  0  0  0
   -0.7334  -27.3471   19.2385 C   0  0  0  0  0  0  0  0  0  0  0  0
    1.1329  -27.3495   21.4079 H   0  0  0  0  0  0  0  0  0  0  0  0
    0.4616  -26.9673   22.9918 H   0  0  0  0  0  0  0  0  0  0  0  0
    0.0065  -25.9440   21.6323 H   0  0  0  0  0  0  0  0  0  0  0  0
   -2.8219  -29.3162   21.1546 H   0  0  0  0  0  0  0  0  0  0  0  0
   -3.8054  -29.7850   18.9354 H   0  0  0  0  0  0  0  0  0  0  0  0
   -2.8392  -28.7230   16.8958 H   0  0  0  0  0  0  0  0  0  0  0  0
    1.9294  -24.5599   18.5005 H   0  0  0  0  0  0  0  0  0  0  0  0
    1.7135  -24.9721   15.5484 H   0  0  0  0  0  0  0  0  0  0  0  0
    4.0053  -24.7688   15.5629 H   0  0  0  0  0  0  0  0  0  0  0  0
    4.0426  -24.4468   17.2873 H   0  0  0  0  0  0  0  0  0  0  0  0
    3.8902  -22.4986   14.9679 H   0  0  0  0  0  0  0  0  0  0  0  0
    4.7343  -22.3009   16.5139 H   0  0  0  0  0  0  0  0  0  0  0  0
    2.7185  -21.9858   17.6009 H   0  0  0  0  0  0  0  0  0  0  0  0
    1.2568  -22.7491   15.1923 H   0  0  0  0  0  0  0  0  0  0  0  0
    0.6444  -22.7575   16.8393 H   0  0  0  0  0  0  0  0  0  0  0  0
  1  2  1  0
  2  3  1  0
  3  4  2  0
  4  5  1  0
  5  6  2  0
  6  7  1  0
  7  8  1  0
  8  9  1  0
  9 10  1  0
 10 11  1  0
 11 12  1  0
 12 13  1  0
 13 14  1  0
 14 15  1  0
  9 16  2  0
 16 17  1  0
 17  3  1  0
 17  7  2  0
 15 11  1  0
  1 18  1  0
  1 19  1  0
  1 20  1  0
  4 21  1  0
  5 22  1  0
  6 23  1  0
 10 24  1  0
 11 25  1  0
 12 26  1  0
 12 27  1  0
 13 28  1  0
 13 29  1  0
 14 30  1  0
 15 31  1  0
 15 32  1  0
M  END
>  <Energy>  (28) 
37.861834709419334

>  <compound_id>  (28) 
87463

>  <target_id>  (28) 
1

>  <reference_id>  (28) 
124

>  <inspiration_ids>  (28) 
[68, 124]

>  <energy_score>  (28) 
-34.771738443702134

>  <distance_score>  (28) 
16.885201880745274

>  <path>  (28) 
/opt/xchem-fragalysis-2/maxwin/BulkDock/SCRATCH/511017/C87463-P124/C87463-P124.minimised.mol

>  <scratch_subdir>  (28) 
/opt/xchem-fragalysis-2/maxwin/BulkDock/SCRATCH/511017/C87463-P124

>  <fragmenstein_runtime>  (28) 
10.246950626373291

>  <fragmenstein_outcome>  (28) 
too moved

>  <fragmenstein_mode>  (28) 
expansion

>  <fragmenstein_error>  (28) 


$$$$
C87465-P68
     RDKit          3D

 33 35  0  0  0  0  0  0  0  0999 V2000
   -7.0154  -34.6178   21.7572 C   0  0  0  0  0  0  0  0  0  0  0  0
   -6.5191  -33.1867   21.0872 O   0  0  0  0  0  0  0  0  0  0  0  0
   -4.9161  -32.7155   21.2075 C   0  0  0  0  0  0  0  0  0  0  0  0
   -4.2369  -33.8045   22.2686 C   0  0  0  0  0  0  0  0  0  0  0  0
   -2.7793  -33.2002   23.1482 C   0  0  0  0  0  0  0  0  0  0  0  0
   -1.8816  -31.9793   22.8136 C   0  0  0  0  0  0  0  0  0  0  0  0
   -2.3146  -30.9717   21.6989 C   0  0  0  0  0  0  0  0  0  0  0  0
   -1.4900  -29.5790   21.2241 S   0  0  0  0  0  0  0  0  0  0  0  0
   -2.4421  -29.3589   19.8162 C   0  0  0  0  0  0  0  0  0  0  0  0
   -1.8233  -28.2948   18.7506 C   0  0  0  0  0  0  0  0  0  0  0  0
   -0.3958  -27.5189   19.0412 C   0  0  0  0  0  0  0  0  0  0  0  0
    0.6767  -27.5213   17.9335 C   0  0  0  0  0  0  0  0  0  0  0  0
    1.6005  -26.3419   18.2694 C   0  0  0  0  0  0  0  0  0  0  0  0
    0.6832  -25.3156   18.7217 N   0  0  0  0  0  0  0  0  0  0  0  0
   -0.4772  -26.0066   19.3185 C   0  0  0  0  0  0  0  0  0  0  0  0
   -3.6012  -30.0827   19.7377 N   0  0  0  0  0  0  0  0  0  0  0  0
   -3.7236  -31.1535   20.8427 C   0  0  0  0  0  0  0  0  0  0  0  0
   -8.1102  -34.5734   21.7948 H   0  0  0  0  0  0  0  0  0  0  0  0
   -6.6806  -34.7632   22.7852 H   0  0  0  0  0  0  0  0  0  0  0  0
   -6.7374  -35.4824   21.1509 H   0  0  0  0  0  0  0  0  0  0  0  0
   -4.8366  -34.7052   22.4565 H   0  0  0  0  0  0  0  0  0  0  0  0
   -2.3952  -33.7025   24.0516 H   0  0  0  0  0  0  0  0  0  0  0  0
   -0.9810  -31.7669   23.3820 H   0  0  0  0  0  0  0  0  0  0  0  0
   -1.7026  -28.8705   17.8242 H   0  0  0  0  0  0  0  0  0  0  0  0
   -2.6075  -27.5474   18.5832 H   0  0  0  0  0  0  0  0  0  0  0  0
    0.0944  -27.9812   19.9031 H   0  0  0  0  0  0  0  0  0  0  0  0
    0.2130  -27.4147   16.9534 H   0  0  0  0  0  0  0  0  0  0  0  0
    1.2306  -28.4663   17.9271 H   0  0  0  0  0  0  0  0  0  0  0  0
    2.2839  -26.6232   19.0791 H   0  0  0  0  0  0  0  0  0  0  0  0
    2.1944  -26.0237   17.4091 H   0  0  0  0  0  0  0  0  0  0  0  0
    1.1335  -24.6817   19.3861 H   0  0  0  0  0  0  0  0  0  0  0  0
   -1.3943  -25.6021   18.8817 H   0  0  0  0  0  0  0  0  0  0  0  0
   -0.4787  -25.8846   20.4056 H   0  0  0  0  0  0  0  0  0  0  0  0
  1  2  1  0
  2  3  1  0
  3  4  2  0
  4  5  1  0
  5  6  2  0
  6  7  1  0
  7  8  1  0
  8  9  1  0
  9 10  1  0
 10 11  1  0
 11 12  1  0
 12 13  1  0
 13 14  1  0
 14 15  1  0
  9 16  2  0
 16 17  1  0
 17  3  1  0
 17  7  2  0
 15 11  1  0
  1 18  1  0
  1 19  1  0
  1 20  1  0
  4 21  1  0
  5 22  1  0
  6 23  1  0
 10 24  1  0
 10 25  1  0
 11 26  1  0
 12 27  1  0
 12 28  1  0
 13 29  1  0
 13 30  1  0
 14 31  1  0
 15 32  1  0
 15 33  1  0
M  END
>  <Energy>  (29) 
368.45205495242692

>  <compound_id>  (29) 
87465

>  <target_id>  (29) 
1

>  <reference_id>  (29) 
68

>  <inspiration_ids>  (29) 
[68, 124]

>  <energy_score>  (29) 
242.24545659010107

>  <distance_score>  (29) 
17.63115721203042

>  <path>  (29) 
/opt/xchem-fragalysis-2/maxwin/BulkDock/SCRATCH/511017/C87465-P68/C87465-P68.minimised.mol

>  <scratch_subdir>  (29) 
/opt/xchem-fragalysis-2/maxwin/BulkDock/SCRATCH/511017/C87465-P68

>  <fragmenstein_runtime>  (29) 
13.61620569229126

>  <fragmenstein_outcome>  (29) 
too moved

>  <fragmenstein_mode>  (29) 
expansion

>  <fragmenstein_error>  (29) 


$$$$
C87465-P124
     RDKit          3D

 33 35  0  0  0  0  0  0  0  0999 V2000
    1.5004  -29.3066   20.1210 C   0  0  0  0  0  0  0  0  0  0  0  0
    0.1700  -29.7928   20.2386 O   0  0  0  0  0  0  0  0  0  0  0  0
   -0.8119  -29.0323   19.6046 C   0  0  0  0  0  0  0  0  0  0  0  0
   -2.1115  -29.5608   19.7736 C   0  0  0  0  0  0  0  0  0  0  0  0
   -3.2140  -28.9353   19.2079 C   0  0  0  0  0  0  0  0  0  0  0  0
   -3.0429  -27.7644   18.4622 C   0  0  0  0  0  0  0  0  0  0  0  0
   -1.7420  -27.2226   18.3035 C   0  0  0  0  0  0  0  0  0  0  0  0
   -1.2568  -25.7694   17.4798 S   0  0  0  0  0  0  0  0  0  0  0  0
    0.4021  -25.9702   17.9341 C   0  0  0  0  0  0  0  0  0  0  0  0
    1.4555  -24.7594   17.9152 C   0  0  0  0  0  0  0  0  0  0  0  0
    2.0331  -23.9554   16.6430 C   0  0  0  0  0  0  0  0  0  0  0  0
    3.4960  -24.2584   16.2490 C   0  0  0  0  0  0  0  0  0  0  0  0
    3.9573  -23.0558   15.4136 C   0  0  0  0  0  0  0  0  0  0  0  0
    3.4345  -21.9113   16.1296 N   0  0  0  0  0  0  0  0  0  0  0  0
    2.1591  -22.3729   16.7178 C   0  0  0  0  0  0  0  0  0  0  0  0
    0.5967  -27.1165   18.5879 N   0  0  0  0  0  0  0  0  0  0  0  0
   -0.6103  -27.8271   18.8522 C   0  0  0  0  0  0  0  0  0  0  0  0
    1.6082  -28.3253   20.5939 H   0  0  0  0  0  0  0  0  0  0  0  0
    2.1527  -29.9997   20.6617 H   0  0  0  0  0  0  0  0  0  0  0  0
    1.8303  -29.2992   19.0774 H   0  0  0  0  0  0  0  0  0  0  0  0
   -2.2468  -30.4706   20.3552 H   0  0  0  0  0  0  0  0  0  0  0  0
   -4.2084  -29.3543   19.3487 H   0  0  0  0  0  0  0  0  0  0  0  0
   -3.9023  -27.2630   18.0268 H   0  0  0  0  0  0  0  0  0  0  0  0
    2.3153  -25.1855   18.4473 H   0  0  0  0  0  0  0  0  0  0  0  0
    0.9824  -24.0249   18.5748 H   0  0  0  0  0  0  0  0  0  0  0  0
    1.4126  -24.2395   15.7929 H   0  0  0  0  0  0  0  0  0  0  0  0
    3.5650  -25.1903   15.6783 H   0  0  0  0  0  0  0  0  0  0  0  0
    4.1293  -24.3661   17.1360 H   0  0  0  0  0  0  0  0  0  0  0  0
    5.0465  -23.0179   15.3254 H   0  0  0  0  0  0  0  0  0  0  0  0
    3.5260  -23.1101   14.4071 H   0  0  0  0  0  0  0  0  0  0  0  0
    3.2512  -21.1268   15.5017 H   0  0  0  0  0  0  0  0  0  0  0  0
    2.0658  -21.9497   17.7084 H   0  0  0  0  0  0  0  0  0  0  0  0
    1.3548  -21.9048   16.1676 H   0  0  0  0  0  0  0  0  0  0  0  0
  1  2  1  0
  2  3  1  0
  3  4  2  0
  4  5  1  0
  5  6  2  0
  6  7  1  0
  7  8  1  0
  8  9  1  0
  9 10  1  0
 10 11  1  0
 11 12  1  0
 12 13  1  0
 13 14  1  0
 14 15  1  0
  9 16  2  0
 16 17  1  0
 17  3  1  0
 17  7  2  0
 15 11  1  0
  1 18  1  0
  1 19  1  0
  1 20  1  0
  4 21  1  0
  5 22  1  0
  6 23  1  0
 10 24  1  0
 10 25  1  0
 11 26  1  0
 12 27  1  0
 12 28  1  0
 13 29  1  0
 13 30  1  0
 14 31  1  0
 15 32  1  0
 15 33  1  0
M  END
>  <Energy>  (30) 
69.187765097885546

>  <compound_id>  (30) 
87465

>  <target_id>  (30) 
1

>  <reference_id>  (30) 
124

>  <inspiration_ids>  (30) 
[68, 124]

>  <energy_score>  (30) 
-57.01883326444187

>  <distance_score>  (30) 
16.651827235330057

>  <path>  (30) 
/opt/xchem-fragalysis-2/maxwin/BulkDock/SCRATCH/511017/C87465-P124/C87465-P124.minimised.mol

>  <scratch_subdir>  (30) 
/opt/xchem-fragalysis-2/maxwin/BulkDock/SCRATCH/511017/C87465-P124

>  <fragmenstein_runtime>  (30) 
12.507843255996704

>  <fragmenstein_outcome>  (30) 
too moved

>  <fragmenstein_mode>  (30) 
expansion

>  <fragmenstein_error>  (30) 


$$$$
C87474-P68
     RDKit          3D

 35 37  0  0  0  0  0  0  0  0999 V2000
   -5.2235  -30.3851   18.0398 C   0  0  0  0  0  0  0  0  0  0  0  0
   -5.1484  -28.9150   18.0439 C   0  0  0  0  0  0  0  0  0  0  0  0
   -5.0522  -28.1643   19.1208 N   0  0  0  0  0  0  0  0  0  0  0  0
   -5.0843  -26.8272   18.7488 C   0  0  0  0  0  0  0  0  0  0  0  0
   -5.0535  -25.7032   19.6004 C   0  0  0  0  0  0  0  0  0  0  0  0
   -5.0299  -24.3943   19.0525 C   0  0  0  0  0  0  0  0  0  0  0  0
   -5.0373  -24.1739   17.6714 C   0  0  0  0  0  0  0  0  0  0  0  0
   -4.9022  -22.8939   17.0655 N   0  0  0  0  0  0  0  0  0  0  0  0
   -4.6311  -21.5308   17.6795 C   0  0  0  0  0  0  0  0  0  0  0  0
   -4.5481  -21.2122   18.8091 O   0  0  0  0  0  0  0  0  0  0  0  0
   -4.4418  -20.7081   16.4144 N   0  0  0  0  0  0  0  0  0  0  0  0
   -4.0082  -19.3127   16.2341 C   0  0  0  0  0  0  0  0  0  0  0  0
   -3.7319  -18.8573   14.7965 C   0  0  0  0  0  0  0  0  0  0  0  0
   -4.1119  -17.3687   14.7334 C   0  0  0  0  0  0  0  0  0  0  0  0
   -4.5746  -16.9690   16.0649 N   0  0  0  0  0  0  0  0  0  0  0  0
   -4.9820  -18.2304   16.7166 C   0  0  0  0  0  0  0  0  0  0  0  0
   -5.1419  -25.2913   16.8275 C   0  0  0  0  0  0  0  0  0  0  0  0
   -5.1512  -26.5940   17.3758 C   0  0  0  0  0  0  0  0  0  0  0  0
   -5.2079  -28.0964   16.5463 S   0  0  0  0  0  0  0  0  0  0  0  0
   -5.5184  -30.7094   19.0337 H   0  0  0  0  0  0  0  0  0  0  0  0
   -4.2527  -30.8129   17.7823 H   0  0  0  0  0  0  0  0  0  0  0  0
   -5.9659  -30.7643   17.3309 H   0  0  0  0  0  0  0  0  0  0  0  0
   -5.0114  -25.8462   20.6754 H   0  0  0  0  0  0  0  0  0  0  0  0
   -4.9666  -23.5502   19.7372 H   0  0  0  0  0  0  0  0  0  0  0  0
   -4.8252  -22.8307   16.0686 H   0  0  0  0  0  0  0  0  0  0  0  0
   -4.6668  -21.2701   15.6152 H   0  0  0  0  0  0  0  0  0  0  0  0
   -3.0705  -19.2346   16.7869 H   0  0  0  0  0  0  0  0  0  0  0  0
   -2.6890  -19.0379   14.5263 H   0  0  0  0  0  0  0  0  0  0  0  0
   -4.3507  -19.4226   14.0889 H   0  0  0  0  0  0  0  0  0  0  0  0
   -4.9355  -17.2393   14.0212 H   0  0  0  0  0  0  0  0  0  0  0  0
   -3.3030  -16.7282   14.3828 H   0  0  0  0  0  0  0  0  0  0  0  0
   -3.8185  -16.5717   16.6143 H   0  0  0  0  0  0  0  0  0  0  0  0
   -6.0043  -18.4755   16.4012 H   0  0  0  0  0  0  0  0  0  0  0  0
   -5.0069  -18.1332   17.8048 H   0  0  0  0  0  0  0  0  0  0  0  0
   -5.1672  -25.1708   15.7486 H   0  0  0  0  0  0  0  0  0  0  0  0
  1  2  1  0
  2  3  2  0
  3  4  1  0
  4  5  2  0
  5  6  1  0
  6  7  2  0
  7  8  1  0
  8  9  1  0
  9 10  2  0
  9 11  1  0
 11 12  1  0
 12 13  1  0
 13 14  1  0
 14 15  1  0
 15 16  1  0
  7 17  1  0
 17 18  2  0
 18 19  1  0
 19  2  1  0
 18  4  1  0
 16 12  1  0
  1 20  1  0
  1 21  1  0
  1 22  1  0
  5 23  1  0
  6 24  1  0
  8 25  1  0
 11 26  1  0
 12 27  1  0
 13 28  1  0
 13 29  1  0
 14 30  1  0
 14 31  1  0
 15 32  1  0
 16 33  1  0
 16 34  1  0
 17 35  1  0
M  END
>  <Energy>  (31) 
-11.717977315020061

>  <compound_id>  (31) 
87474

>  <target_id>  (31) 
1

>  <reference_id>  (31) 
68

>  <inspiration_ids>  (31) 
[68, 124]

>  <energy_score>  (31) 
-30.943699011056992

>  <distance_score>  (31) 
16.436059046239407

>  <path>  (31) 
/opt/xchem-fragalysis-2/maxwin/BulkDock/SCRATCH/511017/C87474-P68/C87474-P68.minimised.mol

>  <scratch_subdir>  (31) 
/opt/xchem-fragalysis-2/maxwin/BulkDock/SCRATCH/511017/C87474-P68

>  <fragmenstein_runtime>  (31) 
44.00954079627991

>  <fragmenstein_outcome>  (31) 
too moved

>  <fragmenstein_mode>  (31) 
expansion

>  <fragmenstein_error>  (31) 


$$$$
C87474-P124
     RDKit          3D

 35 37  0  0  0  0  0  0  0  0999 V2000
   -5.6004  -31.9933   21.5135 C   0  0  0  0  0  0  0  0  0  0  0  0
   -4.6035  -30.9073   21.7137 C   0  0  0  0  0  0  0  0  0  0  0  0
   -4.0605  -30.6085   22.8722 N   0  0  0  0  0  0  0  0  0  0  0  0
   -3.1993  -29.5355   22.7283 C   0  0  0  0  0  0  0  0  0  0  0  0
   -2.4569  -28.9360   23.7600 C   0  0  0  0  0  0  0  0  0  0  0  0
   -1.6007  -27.8502   23.4769 C   0  0  0  0  0  0  0  0  0  0  0  0
   -1.4540  -27.3211   22.1852 C   0  0  0  0  0  0  0  0  0  0  0  0
   -0.5521  -26.2242   22.0152 N   0  0  0  0  0  0  0  0  0  0  0  0
   -0.2142  -25.3955   20.7777 C   0  0  0  0  0  0  0  0  0  0  0  0
   -0.5649  -25.5241   19.6611 O   0  0  0  0  0  0  0  0  0  0  0  0
    0.6519  -24.3109   21.4171 N   0  0  0  0  0  0  0  0  0  0  0  0
    1.2156  -23.0623   20.8456 C   0  0  0  0  0  0  0  0  0  0  0  0
    1.8784  -22.1073   21.8635 C   0  0  0  0  0  0  0  0  0  0  0  0
    2.9262  -21.2960   21.0877 C   0  0  0  0  0  0  0  0  0  0  0  0
    2.8332  -21.7673   19.7114 N   0  0  0  0  0  0  0  0  0  0  0  0
    2.3212  -23.1402   19.7753 C   0  0  0  0  0  0  0  0  0  0  0  0
   -2.2090  -27.9074   21.1513 C   0  0  0  0  0  0  0  0  0  0  0  0
   -3.0674  -29.0152   21.4385 C   0  0  0  0  0  0  0  0  0  0  0  0
   -4.0826  -29.9437   20.3873 S   0  0  0  0  0  0  0  0  0  0  0  0
   -6.2413  -31.8082   20.6467 H   0  0  0  0  0  0  0  0  0  0  0  0
   -5.0899  -32.9500   21.3667 H   0  0  0  0  0  0  0  0  0  0  0  0
   -6.2480  -32.0779   22.3919 H   0  0  0  0  0  0  0  0  0  0  0  0
   -2.5461  -29.3224   24.7702 H   0  0  0  0  0  0  0  0  0  0  0  0
   -1.0408  -27.4227   24.3060 H   0  0  0  0  0  0  0  0  0  0  0  0
   -0.0191  -25.8905   22.7948 H   0  0  0  0  0  0  0  0  0  0  0  0
    0.6903  -24.4564   22.4075 H   0  0  0  0  0  0  0  0  0  0  0  0
    0.3485  -22.5693   20.3950 H   0  0  0  0  0  0  0  0  0  0  0  0
    1.1305  -21.4680   22.3431 H   0  0  0  0  0  0  0  0  0  0  0  0
    2.3725  -22.6818   22.6567 H   0  0  0  0  0  0  0  0  0  0  0  0
    2.7358  -20.2260   21.1648 H   0  0  0  0  0  0  0  0  0  0  0  0
    3.9245  -21.4924   21.4946 H   0  0  0  0  0  0  0  0  0  0  0  0
    3.7205  -21.6767   19.2249 H   0  0  0  0  0  0  0  0  0  0  0  0
    3.1105  -23.8387   20.0774 H   0  0  0  0  0  0  0  0  0  0  0  0
    1.9234  -23.4650   18.8093 H   0  0  0  0  0  0  0  0  0  0  0  0
   -2.1363  -27.5364   20.1323 H   0  0  0  0  0  0  0  0  0  0  0  0
  1  2  1  0
  2  3  2  0
  3  4  1  0
  4  5  2  0
  5  6  1  0
  6  7  2  0
  7  8  1  0
  8  9  1  0
  9 10  2  0
  9 11  1  0
 11 12  1  0
 12 13  1  0
 13 14  1  0
 14 15  1  0
 15 16  1  0
  7 17  1  0
 17 18  2  0
 18 19  1  0
 19  2  1  0
 18  4  1  0
 16 12  1  0
  1 20  1  0
  1 21  1  0
  1 22  1  0
  5 23  1  0
  6 24  1  0
  8 25  1  0
 11 26  1  0
 12 27  1  0
 13 28  1  0
 13 29  1  0
 14 30  1  0
 14 31  1  0
 15 32  1  0
 16 33  1  0
 16 34  1  0
 17 35  1  0
M  END
>  <Energy>  (32) 
-11.391606732773386

>  <compound_id>  (32) 
87474

>  <target_id>  (32) 
1

>  <reference_id>  (32) 
124

>  <inspiration_ids>  (32) 
[68, 124]

>  <energy_score>  (32) 
-30.61732842881304

>  <distance_score>  (32) 
15.620938443914872

>  <path>  (32) 
/opt/xchem-fragalysis-2/maxwin/BulkDock/SCRATCH/511017/C87474-P124/C87474-P124.minimised.mol

>  <scratch_subdir>  (32) 
/opt/xchem-fragalysis-2/maxwin/BulkDock/SCRATCH/511017/C87474-P124

>  <fragmenstein_runtime>  (32) 
25.590404987335205

>  <fragmenstein_outcome>  (32) 
too moved

>  <fragmenstein_mode>  (32) 
expansion

>  <fragmenstein_error>  (32) 


$$$$
C87475-P68
     RDKit          3D

 31 33  0  0  0  0  0  0  0  0999 V2000
   -3.2685  -28.7914   24.2832 Br  0  0  0  0  0  0  0  0  0  0  0  0
   -2.5949  -28.1300   22.6297 C   0  0  0  0  0  0  0  0  0  0  0  0
   -3.4427  -27.3980   21.8053 C   0  0  0  0  0  0  0  0  0  0  0  0
   -2.9546  -26.8341   20.6203 C   0  0  0  0  0  0  0  0  0  0  0  0
   -1.5723  -26.8932   20.3203 C   0  0  0  0  0  0  0  0  0  0  0  0
   -0.9082  -26.1562   19.3242 N   0  0  0  0  0  0  0  0  0  0  0  0
    0.4100  -26.2625   19.4183 C   0  0  0  0  0  0  0  0  0  0  0  0
    1.4803  -25.4137   18.5813 C   0  0  0  0  0  0  0  0  0  0  0  0
    1.2655  -23.9245   18.5542 N   0  0  0  0  0  0  0  0  0  0  0  0
    2.0745  -23.0927   17.5694 C   0  0  0  0  0  0  0  0  0  0  0  0
    1.9407  -21.5721   17.7417 C   0  0  0  0  0  0  0  0  0  0  0  0
    2.9153  -20.9771   16.7258 C   0  0  0  0  0  0  0  0  0  0  0  0
    3.9836  -21.9727   16.5464 N   0  0  0  0  0  0  0  0  0  0  0  0
    3.6001  -23.1640   17.3518 C   0  0  0  0  0  0  0  0  0  0  0  0
    0.8878  -27.4806   20.5680 S   0  0  0  0  0  0  0  0  0  0  0  0
   -0.7452  -27.6457   21.1497 C   0  0  0  0  0  0  0  0  0  0  0  0
   -1.2505  -28.3292   22.2833 C   0  0  0  0  0  0  0  0  0  0  0  0
   -4.4822  -27.2319   22.0782 H   0  0  0  0  0  0  0  0  0  0  0  0
   -3.6031  -26.2322   19.9910 H   0  0  0  0  0  0  0  0  0  0  0  0
    1.4660  -25.8184   17.5684 H   0  0  0  0  0  0  0  0  0  0  0  0
    2.4724  -25.6317   18.9864 H   0  0  0  0  0  0  0  0  0  0  0  0
    0.2820  -23.7473   18.3592 H   0  0  0  0  0  0  0  0  0  0  0  0
    1.6390  -23.3249   16.5991 H   0  0  0  0  0  0  0  0  0  0  0  0
    2.1881  -21.2813   18.7652 H   0  0  0  0  0  0  0  0  0  0  0  0
    0.9315  -21.2492   17.5283 H   0  0  0  0  0  0  0  0  0  0  0  0
    2.4172  -20.8474   15.7593 H   0  0  0  0  0  0  0  0  0  0  0  0
    3.2901  -19.9984   17.0282 H   0  0  0  0  0  0  0  0  0  0  0  0
    4.8508  -21.5928   16.9049 H   0  0  0  0  0  0  0  0  0  0  0  0
    3.8795  -24.0797   16.8211 H   0  0  0  0  0  0  0  0  0  0  0  0
    4.1460  -23.1514   18.2898 H   0  0  0  0  0  0  0  0  0  0  0  0
   -0.5814  -28.8946   22.9241 H   0  0  0  0  0  0  0  0  0  0  0  0
  1  2  1  0
  2  3  2  0
  3  4  1  0
  4  5  2  0
  5  6  1  0
  6  7  2  0
  7  8  1  0
  8  9  1  0
  9 10  1  0
 10 11  1  0
 11 12  1  0
 12 13  1  0
 13 14  1  0
  7 15  1  0
 15 16  1  0
 16 17  2  0
 17  2  1  0
 16  5  1  0
 14 10  1  0
  3 18  1  0
  4 19  1  0
  8 20  1  0
  8 21  1  0
  9 22  1  0
 10 23  1  0
 11 24  1  0
 11 25  1  0
 12 26  1  0
 12 27  1  0
 13 28  1  0
 14 29  1  0
 14 30  1  0
 17 31  1  0
M  END
>  <Energy>  (33) 
67.95722385499559

>  <compound_id>  (33) 
87475

>  <target_id>  (33) 
1

>  <reference_id>  (33) 
68

>  <inspiration_ids>  (33) 
[68, 124]

>  <energy_score>  (33) 
-56.72646923609756

>  <distance_score>  (33) 
16.18500134456916

>  <path>  (33) 
/opt/xchem-fragalysis-2/maxwin/BulkDock/SCRATCH/511017/C87475-P68/C87475-P68.minimised.mol

>  <scratch_subdir>  (33) 
/opt/xchem-fragalysis-2/maxwin/BulkDock/SCRATCH/511017/C87475-P68

>  <fragmenstein_runtime>  (33) 
16.860458850860596

>  <fragmenstein_outcome>  (33) 
too moved

>  <fragmenstein_mode>  (33) 
expansion

>  <fragmenstein_error>  (33) 


$$$$
C87475-P124
     RDKit          3D

 31 33  0  0  0  0  0  0  0  0999 V2000
   -4.7180  -30.4292   19.2738 Br  0  0  0  0  0  0  0  0  0  0  0  0
   -3.3445  -29.1150   19.3259 C   0  0  0  0  0  0  0  0  0  0  0  0
   -3.0720  -28.4859   20.5332 C   0  0  0  0  0  0  0  0  0  0  0  0
   -2.0798  -27.4921   20.5933 C   0  0  0  0  0  0  0  0  0  0  0  0
   -1.3490  -27.1092   19.4347 C   0  0  0  0  0  0  0  0  0  0  0  0
   -0.3583  -26.1069   19.3480 N   0  0  0  0  0  0  0  0  0  0  0  0
    0.1208  -25.9568   18.1092 C   0  0  0  0  0  0  0  0  0  0  0  0
    1.2960  -24.8839   17.7710 C   0  0  0  0  0  0  0  0  0  0  0  0
    1.5452  -24.2820   16.4040 N   0  0  0  0  0  0  0  0  0  0  0  0
    2.7298  -23.2730   16.3325 C   0  0  0  0  0  0  0  0  0  0  0  0
    3.4045  -23.1750   14.9306 C   0  0  0  0  0  0  0  0  0  0  0  0
    4.0521  -21.7806   14.8205 C   0  0  0  0  0  0  0  0  0  0  0  0
    3.8665  -21.1496   16.1205 N   0  0  0  0  0  0  0  0  0  0  0  0
    2.5868  -21.7378   16.6010 C   0  0  0  0  0  0  0  0  0  0  0  0
   -0.5684  -27.1006   17.0040 S   0  0  0  0  0  0  0  0  0  0  0  0
   -1.6274  -27.7645   18.2363 C   0  0  0  0  0  0  0  0  0  0  0  0
   -2.6257  -28.7780   18.1627 C   0  0  0  0  0  0  0  0  0  0  0  0
   -3.6244  -28.7439   21.4340 H   0  0  0  0  0  0  0  0  0  0  0  0
   -1.8773  -26.9873   21.5335 H   0  0  0  0  0  0  0  0  0  0  0  0
    2.2196  -25.3675   18.1110 H   0  0  0  0  0  0  0  0  0  0  0  0
    1.0618  -24.0511   18.4382 H   0  0  0  0  0  0  0  0  0  0  0  0
    1.7948  -25.0571   15.7898 H   0  0  0  0  0  0  0  0  0  0  0  0
    3.5154  -23.6902   16.9735 H   0  0  0  0  0  0  0  0  0  0  0  0
    2.6797  -23.3098   14.1218 H   0  0  0  0  0  0  0  0  0  0  0  0
    4.1555  -23.9666   14.8241 H   0  0  0  0  0  0  0  0  0  0  0  0
    5.1129  -21.8490   14.5604 H   0  0  0  0  0  0  0  0  0  0  0  0
    3.5536  -21.1929   14.0415 H   0  0  0  0  0  0  0  0  0  0  0  0
    4.5783  -21.4798   16.7685 H   0  0  0  0  0  0  0  0  0  0  0  0
    1.7679  -21.3136   16.0176 H   0  0  0  0  0  0  0  0  0  0  0  0
    2.4258  -21.4738   17.6431 H   0  0  0  0  0  0  0  0  0  0  0  0
   -2.8322  -29.2689   17.2164 H   0  0  0  0  0  0  0  0  0  0  0  0
  1  2  1  0
  2  3  2  0
  3  4  1  0
  4  5  2  0
  5  6  1  0
  6  7  2  0
  7  8  1  0
  8  9  1  0
  9 10  1  0
 10 11  1  0
 11 12  1  0
 12 13  1  0
 13 14  1  0
  7 15  1  0
 15 16  1  0
 16 17  2  0
 17  2  1  0
 16  5  1  0
 14 10  1  0
  3 18  1  0
  4 19  1  0
  8 20  1  0
  8 21  1  0
  9 22  1  0
 10 23  1  0
 11 24  1  0
 11 25  1  0
 12 26  1  0
 12 27  1  0
 13 28  1  0
 14 29  1  0
 14 30  1  0
 17 31  1  0
M  END
>  <Energy>  (34) 
77.683560744412318

>  <compound_id>  (34) 
87475

>  <target_id>  (34) 
1

>  <reference_id>  (34) 
124

>  <inspiration_ids>  (34) 
[68, 124]

>  <energy_score>  (34) 
-47.00013234668387

>  <distance_score>  (34) 
16.098901941033397

>  <path>  (34) 
/opt/xchem-fragalysis-2/maxwin/BulkDock/SCRATCH/511017/C87475-P124/C87475-P124.minimised.mol

>  <scratch_subdir>  (34) 
/opt/xchem-fragalysis-2/maxwin/BulkDock/SCRATCH/511017/C87475-P124

>  <fragmenstein_runtime>  (34) 
12.545823812484741

>  <fragmenstein_outcome>  (34) 
too moved

>  <fragmenstein_mode>  (34) 
expansion

>  <fragmenstein_error>  (34) 


$$$$
C87476-P68
     RDKit          3D

 35 37  0  0  0  0  0  0  0  0999 V2000
   -1.2299  -30.6496   22.4639 C   0  0  0  0  0  0  0  0  0  0  0  0
   -2.1770  -30.0801   21.5728 O   0  0  0  0  0  0  0  0  0  0  0  0
   -1.7143  -29.0734   20.7677 C   0  0  0  0  0  0  0  0  0  0  0  0
   -2.6470  -28.5601   19.8715 C   0  0  0  0  0  0  0  0  0  0  0  0
   -2.3344  -27.4511   19.0780 C   0  0  0  0  0  0  0  0  0  0  0  0
   -1.0536  -26.8587   19.1576 C   0  0  0  0  0  0  0  0  0  0  0  0
   -0.6252  -25.6996   18.5113 N   0  0  0  0  0  0  0  0  0  0  0  0
    0.6378  -25.3688   18.7707 C   0  0  0  0  0  0  0  0  0  0  0  0
    1.2530  -23.8989   18.4355 C   0  0  0  0  0  0  0  0  0  0  0  0
    2.3989  -23.7355   17.4761 N   0  0  0  0  0  0  0  0  0  0  0  0
    3.0237  -22.3563   17.4214 C   0  0  0  0  0  0  0  0  0  0  0  0
    4.2482  -22.2978   16.4718 C   0  0  0  0  0  0  0  0  0  0  0  0
    4.3217  -20.8789   15.8854 C   0  0  0  0  0  0  0  0  0  0  0  0
    3.2565  -20.1126   16.5161 N   0  0  0  0  0  0  0  0  0  0  0  0
    2.2542  -21.1268   16.9074 C   0  0  0  0  0  0  0  0  0  0  0  0
    1.3791  -26.5191   19.8366 S   0  0  0  0  0  0  0  0  0  0  0  0
   -0.1048  -27.4251   19.9957 C   0  0  0  0  0  0  0  0  0  0  0  0
   -0.4174  -28.5345   20.8139 C   0  0  0  0  0  0  0  0  0  0  0  0
   -0.8849  -29.9073   23.1922 H   0  0  0  0  0  0  0  0  0  0  0  0
   -0.3842  -31.0812   21.9169 H   0  0  0  0  0  0  0  0  0  0  0  0
   -1.6837  -31.4629   23.0330 H   0  0  0  0  0  0  0  0  0  0  0  0
   -3.6334  -29.0027   19.7802 H   0  0  0  0  0  0  0  0  0  0  0  0
   -3.0776  -27.0224   18.4128 H   0  0  0  0  0  0  0  0  0  0  0  0
    0.4151  -23.3112   18.0397 H   0  0  0  0  0  0  0  0  0  0  0  0
    1.4668  -23.4293   19.3978 H   0  0  0  0  0  0  0  0  0  0  0  0
    2.0721  -23.9435   16.5418 H   0  0  0  0  0  0  0  0  0  0  0  0
    3.3530  -22.1511   18.4341 H   0  0  0  0  0  0  0  0  0  0  0  0
    5.1666  -22.5725   17.0001 H   0  0  0  0  0  0  0  0  0  0  0  0
    4.1276  -23.0126   15.6477 H   0  0  0  0  0  0  0  0  0  0  0  0
    4.1503  -20.9184   14.8034 H   0  0  0  0  0  0  0  0  0  0  0  0
    5.3028  -20.4205   16.0352 H   0  0  0  0  0  0  0  0  0  0  0  0
    3.5982  -19.7008   17.3734 H   0  0  0  0  0  0  0  0  0  0  0  0
    1.5582  -20.7359   17.6534 H   0  0  0  0  0  0  0  0  0  0  0  0
    1.7053  -21.4089   16.0147 H   0  0  0  0  0  0  0  0  0  0  0  0
    0.3477  -28.9195   21.4767 H   0  0  0  0  0  0  0  0  0  0  0  0
  1  2  1  0
  2  3  1  0
  3  4  2  0
  4  5  1  0
  5  6  2  0
  6  7  1  0
  7  8  2  0
  8  9  1  0
  9 10  1  0
 10 11  1  0
 11 12  1  0
 12 13  1  0
 13 14  1  0
 14 15  1  0
  8 16  1  0
 16 17  1  0
 17 18  2  0
 18  3  1  0
 17  6  1  0
 15 11  1  0
  1 19  1  0
  1 20  1  0
  1 21  1  0
  4 22  1  0
  5 23  1  0
  9 24  1  0
  9 25  1  0
 10 26  1  0
 11 27  1  0
 12 28  1  0
 12 29  1  0
 13 30  1  0
 13 31  1  0
 14 32  1  0
 15 33  1  0
 15 34  1  0
 18 35  1  0
M  END
>  <Energy>  (35) 
77.196365213007155

>  <compound_id>  (35) 
87476

>  <target_id>  (35) 
1

>  <reference_id>  (35) 
68

>  <inspiration_ids>  (35) 
[68, 124]

>  <energy_score>  (35) 
-61.59683248048674

>  <distance_score>  (35) 
15.756912183516793

>  <path>  (35) 
/opt/xchem-fragalysis-2/maxwin/BulkDock/SCRATCH/511017/C87476-P68/C87476-P68.minimised.mol

>  <scratch_subdir>  (35) 
/opt/xchem-fragalysis-2/maxwin/BulkDock/SCRATCH/511017/C87476-P68

>  <fragmenstein_runtime>  (35) 
17.06162691116333

>  <fragmenstein_outcome>  (35) 
too moved

>  <fragmenstein_mode>  (35) 
expansion

>  <fragmenstein_error>  (35) 


$$$$
C87476-P124
     RDKit          3D

 35 37  0  0  0  0  0  0  0  0999 V2000
   -5.2661  -30.0577   20.7136 C   0  0  0  0  0  0  0  0  0  0  0  0
   -4.7017  -29.6166   19.4774 O   0  0  0  0  0  0  0  0  0  0  0  0
   -3.5984  -28.7957   19.5270 C   0  0  0  0  0  0  0  0  0  0  0  0
   -3.0051  -28.3000   20.6812 C   0  0  0  0  0  0  0  0  0  0  0  0
   -1.8784  -27.4428   20.6011 C   0  0  0  0  0  0  0  0  0  0  0  0
   -1.3159  -27.0484   19.3525 C   0  0  0  0  0  0  0  0  0  0  0  0
   -0.2041  -26.1751   19.1234 N   0  0  0  0  0  0  0  0  0  0  0  0
    0.0670  -26.0276   17.8226 C   0  0  0  0  0  0  0  0  0  0  0  0
    1.3879  -25.2833   17.1510 C   0  0  0  0  0  0  0  0  0  0  0  0
    1.3674  -23.7853   16.8874 N   0  0  0  0  0  0  0  0  0  0  0  0
    2.6932  -23.0956   16.4373 C   0  0  0  0  0  0  0  0  0  0  0  0
    3.2200  -23.2013   14.9888 C   0  0  0  0  0  0  0  0  0  0  0  0
    3.7255  -21.8040   14.5689 C   0  0  0  0  0  0  0  0  0  0  0  0
    3.8452  -21.0204   15.7957 N   0  0  0  0  0  0  0  0  0  0  0  0
    2.7249  -21.5323   16.6161 C   0  0  0  0  0  0  0  0  0  0  0  0
   -1.0391  -26.9531   16.8233 S   0  0  0  0  0  0  0  0  0  0  0  0
   -1.9148  -27.5642   18.2051 C   0  0  0  0  0  0  0  0  0  0  0  0
   -3.0474  -28.4341   18.2785 C   0  0  0  0  0  0  0  0  0  0  0  0
   -5.6808  -29.2152   21.2735 H   0  0  0  0  0  0  0  0  0  0  0  0
   -4.5233  -30.5966   21.3109 H   0  0  0  0  0  0  0  0  0  0  0  0
   -6.0757  -30.7551   20.4891 H   0  0  0  0  0  0  0  0  0  0  0  0
   -3.3872  -28.5401   21.6686 H   0  0  0  0  0  0  0  0  0  0  0  0
   -1.4357  -27.0554   21.5147 H   0  0  0  0  0  0  0  0  0  0  0  0
    1.5890  -25.7937   16.2022 H   0  0  0  0  0  0  0  0  0  0  0  0
    2.2121  -25.5051   17.8399 H   0  0  0  0  0  0  0  0  0  0  0  0
    1.2332  -23.3815   17.8215 H   0  0  0  0  0  0  0  0  0  0  0  0
    3.4938  -23.5347   17.0409 H   0  0  0  0  0  0  0  0  0  0  0  0
    2.4775  -23.5813   14.2839 H   0  0  0  0  0  0  0  0  0  0  0  0
    4.0493  -23.9200   14.9654 H   0  0  0  0  0  0  0  0  0  0  0  0
    4.6822  -21.8651   14.0418 H   0  0  0  0  0  0  0  0  0  0  0  0
    3.0002  -21.3345   13.8963 H   0  0  0  0  0  0  0  0  0  0  0  0
    3.6195  -20.0476   15.5710 H   0  0  0  0  0  0  0  0  0  0  0  0
    1.7998  -21.1062   16.2219 H   0  0  0  0  0  0  0  0  0  0  0  0
    2.8284  -21.2129   17.6534 H   0  0  0  0  0  0  0  0  0  0  0  0
   -3.4951  -28.8135   17.3637 H   0  0  0  0  0  0  0  0  0  0  0  0
  1  2  1  0
  2  3  1  0
  3  4  2  0
  4  5  1  0
  5  6  2  0
  6  7  1  0
  7  8  2  0
  8  9  1  0
  9 10  1  0
 10 11  1  0
 11 12  1  0
 12 13  1  0
 13 14  1  0
 14 15  1  0
  8 16  1  0
 16 17  1  0
 17 18  2  0
 18  3  1  0
 17  6  1  0
 15 11  1  0
  1 19  1  0
  1 20  1  0
  1 21  1  0
  4 22  1  0
  5 23  1  0
  9 24  1  0
  9 25  1  0
 10 26  1  0
 11 27  1  0
 12 28  1  0
 12 29  1  0
 13 30  1  0
 13 31  1  0
 14 32  1  0
 15 33  1  0
 15 34  1  0
 18 35  1  0
M  END
>  <Energy>  (36) 
82.851001178236174

>  <compound_id>  (36) 
87476

>  <target_id>  (36) 
1

>  <reference_id>  (36) 
124

>  <inspiration_ids>  (36) 
[68, 124]

>  <energy_score>  (36) 
-55.942196515262594

>  <distance_score>  (36) 
15.617417977285848

>  <path>  (36) 
/opt/xchem-fragalysis-2/maxwin/BulkDock/SCRATCH/511017/C87476-P124/C87476-P124.minimised.mol

>  <scratch_subdir>  (36) 
/opt/xchem-fragalysis-2/maxwin/BulkDock/SCRATCH/511017/C87476-P124

>  <fragmenstein_runtime>  (36) 
12.589118003845215

>  <fragmenstein_outcome>  (36) 
too moved

>  <fragmenstein_mode>  (36) 
expansion

>  <fragmenstein_error>  (36) 


$$$$
C87477-P68
     RDKit          3D

 30 32  0  0  0  0  0  0  0  0999 V2000
   -6.2284  -30.8690   17.5480 O   0  0  0  0  0  0  0  0  0  0  0  0
   -6.5171  -29.9448   18.3141 N   0  0  0  0  0  0  0  0  0  0  0  0
   -7.6345  -29.8083   18.8377 O   0  0  0  0  0  0  0  0  0  0  0  0
   -5.4769  -28.9257   18.5799 C   0  0  0  0  0  0  0  0  0  0  0  0
   -5.8223  -27.8368   19.3789 C   0  0  0  0  0  0  0  0  0  0  0  0
   -4.8908  -26.8262   19.6133 C   0  0  0  0  0  0  0  0  0  0  0  0
   -3.6409  -26.8341   18.9529 C   0  0  0  0  0  0  0  0  0  0  0  0
   -2.7427  -25.7852   18.9566 N   0  0  0  0  0  0  0  0  0  0  0  0
   -1.7177  -25.9317   18.1348 C   0  0  0  0  0  0  0  0  0  0  0  0
   -0.9750  -24.7811   17.8215 N   0  0  0  0  0  0  0  0  0  0  0  0
    0.5174  -24.5346   17.7240 C   0  0  0  0  0  0  0  0  0  0  0  0
    0.9508  -23.2541   18.4917 C   0  0  0  0  0  0  0  0  0  0  0  0
    2.1196  -22.6410   17.7267 C   0  0  0  0  0  0  0  0  0  0  0  0
    1.7476  -22.8397   16.3252 N   0  0  0  0  0  0  0  0  0  0  0  0
    1.0335  -24.1459   16.3044 C   0  0  0  0  0  0  0  0  0  0  0  0
   -1.7056  -27.5348   17.4537 S   0  0  0  0  0  0  0  0  0  0  0  0
   -3.2914  -27.9132   18.1486 C   0  0  0  0  0  0  0  0  0  0  0  0
   -4.1880  -29.0128   17.9816 C   0  0  0  0  0  0  0  0  0  0  0  0
   -6.8178  -27.7232   19.8023 H   0  0  0  0  0  0  0  0  0  0  0  0
   -5.1547  -25.9637   20.2201 H   0  0  0  0  0  0  0  0  0  0  0  0
   -1.3245  -24.1241   18.5252 H   0  0  0  0  0  0  0  0  0  0  0  0
    1.0649  -25.4036   18.1069 H   0  0  0  0  0  0  0  0  0  0  0  0
    0.1354  -22.5374   18.5103 H   0  0  0  0  0  0  0  0  0  0  0  0
    1.1896  -23.4800   19.5322 H   0  0  0  0  0  0  0  0  0  0  0  0
    2.2623  -21.5832   17.9644 H   0  0  0  0  0  0  0  0  0  0  0  0
    3.0529  -23.1752   17.9260 H   0  0  0  0  0  0  0  0  0  0  0  0
    1.1003  -22.0901   16.0634 H   0  0  0  0  0  0  0  0  0  0  0  0
    1.7488  -24.9102   15.9768 H   0  0  0  0  0  0  0  0  0  0  0  0
    0.2305  -24.1439   15.5632 H   0  0  0  0  0  0  0  0  0  0  0  0
   -3.9103  -29.8451   17.3405 H   0  0  0  0  0  0  0  0  0  0  0  0
  1  2  2  0
  2  3  1  0
  2  4  1  0
  4  5  2  0
  5  6  1  0
  6  7  2  0
  7  8  1  0
  8  9  2  0
  9 10  1  0
 10 11  1  0
 11 12  1  0
 12 13  1  0
 13 14  1  0
 14 15  1  0
  9 16  1  0
 16 17  1  0
 17 18  2  0
 18  4  1  0
 17  7  1  0
 15 11  1  0
  5 19  1  0
  6 20  1  0
 10 21  1  0
 11 22  1  0
 12 23  1  0
 12 24  1  0
 13 25  1  0
 13 26  1  0
 14 27  1  0
 15 28  1  0
 15 29  1  0
 18 30  1  0
M  CHG  2   2   1   3  -1
M  END
>  <Energy>  (37) 
60.087191769222969

>  <compound_id>  (37) 
87477

>  <target_id>  (37) 
1

>  <reference_id>  (37) 
68

>  <inspiration_ids>  (37) 
[68, 124]

>  <energy_score>  (37) 
-32.229066075871856

>  <distance_score>  (37) 
16.112973282202695

>  <path>  (37) 
/opt/xchem-fragalysis-2/maxwin/BulkDock/SCRATCH/511017/C87477-P68/C87477-P68.minimised.mol

>  <scratch_subdir>  (37) 
/opt/xchem-fragalysis-2/maxwin/BulkDock/SCRATCH/511017/C87477-P68

>  <fragmenstein_runtime>  (37) 
10.761330366134644

>  <fragmenstein_outcome>  (37) 
too moved

>  <fragmenstein_mode>  (37) 
expansion

>  <fragmenstein_error>  (37) 


$$$$
C87477-P124
     RDKit          3D

 30 32  0  0  0  0  0  0  0  0999 V2000
   -8.0092  -32.5239   22.4116 O   0  0  0  0  0  0  0  0  0  0  0  0
   -7.7924  -31.3594   22.0342 N   0  0  0  0  0  0  0  0  0  0  0  0
   -8.6597  -30.4735   21.9947 O   0  0  0  0  0  0  0  0  0  0  0  0
   -6.4124  -31.0027   21.6022 C   0  0  0  0  0  0  0  0  0  0  0  0
   -5.4297  -31.9900   21.5373 C   0  0  0  0  0  0  0  0  0  0  0  0
   -4.1276  -31.6688   21.0950 C   0  0  0  0  0  0  0  0  0  0  0  0
   -3.7898  -30.3485   20.6928 C   0  0  0  0  0  0  0  0  0  0  0  0
   -2.5505  -29.8934   20.1975 N   0  0  0  0  0  0  0  0  0  0  0  0
   -2.5541  -28.6013   19.8947 C   0  0  0  0  0  0  0  0  0  0  0  0
   -1.4563  -27.9716   19.3110 N   0  0  0  0  0  0  0  0  0  0  0  0
   -1.0858  -26.5151   19.3269 C   0  0  0  0  0  0  0  0  0  0  0  0
   -1.0441  -25.8495   17.9277 C   0  0  0  0  0  0  0  0  0  0  0  0
    0.2683  -25.0519   17.8207 C   0  0  0  0  0  0  0  0  0  0  0  0
    0.8008  -24.9774   19.1793 N   0  0  0  0  0  0  0  0  0  0  0  0
    0.3684  -26.2416   19.8056 C   0  0  0  0  0  0  0  0  0  0  0  0
   -4.0939  -27.8702   20.2325 S   0  0  0  0  0  0  0  0  0  0  0  0
   -4.7822  -29.3751   20.7748 C   0  0  0  0  0  0  0  0  0  0  0  0
   -6.0987  -29.6753   21.2329 C   0  0  0  0  0  0  0  0  0  0  0  0
   -5.6469  -33.0177   21.8214 H   0  0  0  0  0  0  0  0  0  0  0  0
   -3.3673  -32.4436   21.0463 H   0  0  0  0  0  0  0  0  0  0  0  0
   -0.6611  -28.5934   19.1948 H   0  0  0  0  0  0  0  0  0  0  0  0
   -1.7965  -25.9923   19.9695 H   0  0  0  0  0  0  0  0  0  0  0  0
   -1.9078  -25.1838   17.8159 H   0  0  0  0  0  0  0  0  0  0  0  0
   -1.1015  -26.5949   17.1264 H   0  0  0  0  0  0  0  0  0  0  0  0
    0.9785  -25.5861   17.1793 H   0  0  0  0  0  0  0  0  0  0  0  0
    0.1108  -24.0602   17.3869 H   0  0  0  0  0  0  0  0  0  0  0  0
    0.2725  -24.2395   19.6566 H   0  0  0  0  0  0  0  0  0  0  0  0
    1.0424  -27.0493   19.4948 H   0  0  0  0  0  0  0  0  0  0  0  0
    0.4180  -26.1777   20.8976 H   0  0  0  0  0  0  0  0  0  0  0  0
   -6.8506  -28.8919   21.2691 H   0  0  0  0  0  0  0  0  0  0  0  0
  1  2  2  0
  2  3  1  0
  2  4  1  0
  4  5  2  0
  5  6  1  0
  6  7  2  0
  7  8  1  0
  8  9  2  0
  9 10  1  0
 10 11  1  0
 11 12  1  0
 12 13  1  0
 13 14  1  0
 14 15  1  0
  9 16  1  0
 16 17  1  0
 17 18  2  0
 18  4  1  0
 17  7  1  0
 15 11  1  0
  5 19  1  0
  6 20  1  0
 10 21  1  0
 11 22  1  0
 12 23  1  0
 12 24  1  0
 13 25  1  0
 13 26  1  0
 14 27  1  0
 15 28  1  0
 15 29  1  0
 18 30  1  0
M  CHG  2   2   1   3  -1
M  END
>  <Energy>  (38) 
46.083385460667067

>  <compound_id>  (38) 
87477

>  <target_id>  (38) 
1

>  <reference_id>  (38) 
124

>  <inspiration_ids>  (38) 
[68, 124]

>  <energy_score>  (38) 
-46.23287238442731

>  <distance_score>  (38) 
16.362959801905898

>  <path>  (38) 
/opt/xchem-fragalysis-2/maxwin/BulkDock/SCRATCH/511017/C87477-P124/C87477-P124.minimised.mol

>  <scratch_subdir>  (38) 
/opt/xchem-fragalysis-2/maxwin/BulkDock/SCRATCH/511017/C87477-P124

>  <fragmenstein_runtime>  (38) 
9.47157883644104

>  <fragmenstein_outcome>  (38) 
too moved

>  <fragmenstein_mode>  (38) 
expansion

>  <fragmenstein_error>  (38) 


$$$$
C28936-P68
     RDKit          3D

 46 48  0  0  0  0  0  0  0  0999 V2000
   -0.6015  -28.1492   21.3476 F   0  0  0  0  0  0  0  0  0  0  0  0
    0.2750  -27.3182   20.7467 C   0  0  0  0  0  0  0  0  0  0  0  0
    1.6045  -27.6421   20.5996 C   0  0  0  0  0  0  0  0  0  0  0  0
    2.4604  -26.7808   19.8606 C   0  0  0  0  0  0  0  0  0  0  0  0
    1.9771  -25.5861   19.2081 C   0  0  0  0  0  0  0  0  0  0  0  0
    2.6289  -24.7337   18.2363 N   0  0  0  0  0  0  0  0  0  0  0  0
    1.9767  -23.5717   18.0647 C   0  0  0  0  0  0  0  0  0  0  0  0
    2.4292  -22.2384   17.2099 C   0  0  0  0  0  0  0  0  0  0  0  0
    2.2843  -20.8306   17.8282 N   0  0  0  0  0  0  0  0  0  0  0  0
    2.6481  -19.5429   16.8891 C   0  0  0  0  0  0  0  0  0  0  0  0
    3.5695  -18.0370   16.5705 C   0  0  0  0  0  0  0  0  0  0  0  0
    3.4658  -16.3495   16.8572 C   0  0  0  0  0  0  0  0  0  0  0  0
    3.8811  -15.3298   18.1201 C   0  0  0  0  0  0  0  0  0  0  0  0
    4.3190  -13.5612   18.4376 C   0  0  0  0  0  0  0  0  0  0  0  0
    5.4969  -12.6331   18.0610 N   0  0  0  0  0  0  0  0  0  0  0  0
    6.3390  -12.2099   19.2138 C   0  0  0  0  0  0  0  0  0  0  0  0
    7.2231  -11.0963   18.6448 C   0  0  0  0  0  0  0  0  0  0  0  0
    6.3868  -10.4824   17.5346 C   0  0  0  0  0  0  0  0  0  0  0  0
    5.0960  -11.3056   17.5334 C   0  0  0  0  0  0  0  0  0  0  0  0
    0.4411  -23.6288   18.7935 S   0  0  0  0  0  0  0  0  0  0  0  0
    0.6746  -25.2193   19.4979 C   0  0  0  0  0  0  0  0  0  0  0  0
   -0.1717  -26.1056   20.2406 C   0  0  0  0  0  0  0  0  0  0  0  0
    1.9887  -28.5678   21.0179 H   0  0  0  0  0  0  0  0  0  0  0  0
    3.4946  -27.0655   19.6860 H   0  0  0  0  0  0  0  0  0  0  0  0
    3.4858  -22.3929   16.9621 H   0  0  0  0  0  0  0  0  0  0  0  0
    1.8502  -22.2556   16.2836 H   0  0  0  0  0  0  0  0  0  0  0  0
    2.9253  -20.8378   18.6272 H   0  0  0  0  0  0  0  0  0  0  0  0
    2.2597  -18.9816   17.7316 H   0  0  0  0  0  0  0  0  0  0  0  0
    3.5930  -20.0520   16.6941 H   0  0  0  0  0  0  0  0  0  0  0  0
    3.3749  -18.0223   15.4833 H   0  0  0  0  0  0  0  0  0  0  0  0
    4.6345  -18.2884   16.5780 H   0  0  0  0  0  0  0  0  0  0  0  0
    2.4645  -16.0627   16.5918 H   0  0  0  0  0  0  0  0  0  0  0  0
    4.1428  -16.0479   16.0614 H   0  0  0  0  0  0  0  0  0  0  0  0
    2.9550  -15.3864   18.7097 H   0  0  0  0  0  0  0  0  0  0  0  0
    4.6451  -15.9387   18.5757 H   0  0  0  0  0  0  0  0  0  0  0  0
    4.2085  -13.4741   19.5238 H   0  0  0  0  0  0  0  0  0  0  0  0
    3.4730  -13.0613   17.9631 H   0  0  0  0  0  0  0  0  0  0  0  0
    6.9564  -13.0074   19.6335 H   0  0  0  0  0  0  0  0  0  0  0  0
    5.7154  -11.8075   20.0233 H   0  0  0  0  0  0  0  0  0  0  0  0
    8.1495  -11.5107   18.2306 H   0  0  0  0  0  0  0  0  0  0  0  0
    7.4895  -10.3632   19.4124 H   0  0  0  0  0  0  0  0  0  0  0  0
    6.1841   -9.4217   17.7122 H   0  0  0  0  0  0  0  0  0  0  0  0
    6.9094  -10.5755   16.5758 H   0  0  0  0  0  0  0  0  0  0  0  0
    4.3541  -10.8340   18.1916 H   0  0  0  0  0  0  0  0  0  0  0  0
    4.6736  -11.3527   16.5296 H   0  0  0  0  0  0  0  0  0  0  0  0
   -1.2116  -25.8876   20.4056 H   0  0  0  0  0  0  0  0  0  0  0  0
  1  2  1  0
  2  3  2  0
  3  4  1  0
  4  5  2  0
  5  6  1  0
  6  7  2  0
  7  8  1  0
  8  9  1  0
  9 10  1  0
 10 11  1  0
 11 12  1  0
 12 13  1  0
 13 14  1  0
 14 15  1  0
 15 16  1  0
 16 17  1  0
 17 18  1  0
 18 19  1  0
  7 20  1  0
 20 21  1  0
 21 22  2  0
 22  2  1  0
 21  5  1  0
 19 15  1  0
  3 23  1  0
  4 24  1  0
  8 25  1  0
  8 26  1  0
  9 27  1  0
 10 28  1  0
 10 29  1  0
 11 30  1  0
 11 31  1  0
 12 32  1  0
 12 33  1  0
 13 34  1  0
 13 35  1  0
 14 36  1  0
 14 37  1  0
 16 38  1  0
 16 39  1  0
 17 40  1  0
 17 41  1  0
 18 42  1  0
 18 43  1  0
 19 44  1  0
 19 45  1  0
 22 46  1  0
M  END
>  <Energy>  (39) 
265.79515463287794

>  <compound_id>  (39) 
28936

>  <target_id>  (39) 
1

>  <reference_id>  (39) 
68

>  <inspiration_ids>  (39) 
[68, 124]

>  <energy_score>  (39) 
157.44555145736422

>  <distance_score>  (39) 
15.180519841713048

>  <path>  (39) 
/opt/xchem-fragalysis-2/maxwin/BulkDock/SCRATCH/511017/C28936-P68/C28936-P68.minimised.mol

>  <scratch_subdir>  (39) 
/opt/xchem-fragalysis-2/maxwin/BulkDock/SCRATCH/511017/C28936-P68

>  <fragmenstein_runtime>  (39) 
10.592266321182251

>  <fragmenstein_outcome>  (39) 
too moved

>  <fragmenstein_mode>  (39) 
expansion

>  <fragmenstein_error>  (39) 


$$$$
C28936-P124
     RDKit          3D

 46 48  0  0  0  0  0  0  0  0999 V2000
    5.8145  -26.1652   17.1344 F   0  0  0  0  0  0  0  0  0  0  0  0
    6.1493  -24.8573   17.1818 C   0  0  0  0  0  0  0  0  0  0  0  0
    5.1624  -23.9429   16.8321 C   0  0  0  0  0  0  0  0  0  0  0  0
    5.3229  -22.5917   17.1969 C   0  0  0  0  0  0  0  0  0  0  0  0
    6.4706  -22.2151   17.9775 C   0  0  0  0  0  0  0  0  0  0  0  0
    6.5044  -21.4595   19.1674 N   0  0  0  0  0  0  0  0  0  0  0  0
    7.5821  -20.6547   19.1340 C   0  0  0  0  0  0  0  0  0  0  0  0
    7.6494  -18.9034   19.7343 C   0  0  0  0  0  0  0  0  0  0  0  0
    6.5978  -17.7092   19.3315 N   0  0  0  0  0  0  0  0  0  0  0  0
    5.8897  -16.1198   19.7571 C   0  0  0  0  0  0  0  0  0  0  0  0
    5.7582  -14.0189   19.5966 C   0  0  0  0  0  0  0  0  0  0  0  0
    7.1194  -13.0227   19.5315 C   0  0  0  0  0  0  0  0  0  0  0  0
    6.7933  -11.5000   19.8381 C   0  0  0  0  0  0  0  0  0  0  0  0
    7.9644  -10.4624   19.8412 C   0  0  0  0  0  0  0  0  0  0  0  0
    7.4474   -9.1287   20.2300 N   0  0  0  0  0  0  0  0  0  0  0  0
    7.2564   -8.9853   21.6805 C   0  0  0  0  0  0  0  0  0  0  0  0
    8.5567   -8.4463   22.2535 C   0  0  0  0  0  0  0  0  0  0  0  0
    9.3104   -7.9078   21.0612 C   0  0  0  0  0  0  0  0  0  0  0  0
    8.3408   -8.0199   19.8946 C   0  0  0  0  0  0  0  0  0  0  0  0
    8.8471  -21.8668   18.6731 S   0  0  0  0  0  0  0  0  0  0  0  0
    7.5684  -23.0435   18.0488 C   0  0  0  0  0  0  0  0  0  0  0  0
    7.4189  -24.4195   17.6854 C   0  0  0  0  0  0  0  0  0  0  0  0
    4.2070  -24.2881   16.4457 H   0  0  0  0  0  0  0  0  0  0  0  0
    4.4488  -21.9402   17.1766 H   0  0  0  0  0  0  0  0  0  0  0  0
    7.4932  -19.0356   20.7808 H   0  0  0  0  0  0  0  0  0  0  0  0
    8.6718  -18.5862   19.5105 H   0  0  0  0  0  0  0  0  0  0  0  0
    6.6055  -17.6873   18.3301 H   0  0  0  0  0  0  0  0  0  0  0  0
    5.2046  -16.2379   18.9267 H   0  0  0  0  0  0  0  0  0  0  0  0
    6.9007  -15.9804   19.8304 H   0  0  0  0  0  0  0  0  0  0  0  0
    5.1727  -13.4726   20.3732 H   0  0  0  0  0  0  0  0  0  0  0  0
    5.1646  -13.8144   18.6753 H   0  0  0  0  0  0  0  0  0  0  0  0
    7.5674  -13.0493   18.5377 H   0  0  0  0  0  0  0  0  0  0  0  0
    7.8727  -13.3739   20.2439 H   0  0  0  0  0  0  0  0  0  0  0  0
    6.2976  -11.4849   20.8156 H   0  0  0  0  0  0  0  0  0  0  0  0
    6.0424  -11.1737   19.1063 H   0  0  0  0  0  0  0  0  0  0  0  0
    8.7701  -10.7992   20.5038 H   0  0  0  0  0  0  0  0  0  0  0  0
    8.3661  -10.4260   18.8215 H   0  0  0  0  0  0  0  0  0  0  0  0
    6.4569   -8.2525   21.8493 H   0  0  0  0  0  0  0  0  0  0  0  0
    6.9413   -9.9024   22.1878 H   0  0  0  0  0  0  0  0  0  0  0  0
    9.1333   -9.2413   22.7396 H   0  0  0  0  0  0  0  0  0  0  0  0
    8.3658   -7.6662   22.9980 H   0  0  0  0  0  0  0  0  0  0  0  0
   10.1937   -8.5342   20.9001 H   0  0  0  0  0  0  0  0  0  0  0  0
    9.6305   -6.8769   21.2407 H   0  0  0  0  0  0  0  0  0  0  0  0
    7.7477   -7.0988   19.8267 H   0  0  0  0  0  0  0  0  0  0  0  0
    8.8035   -8.1594   18.9205 H   0  0  0  0  0  0  0  0  0  0  0  0
    8.2144  -25.1319   17.8716 H   0  0  0  0  0  0  0  0  0  0  0  0
  1  2  1  0
  2  3  2  0
  3  4  1  0
  4  5  2  0
  5  6  1  0
  6  7  2  0
  7  8  1  0
  8  9  1  0
  9 10  1  0
 10 11  1  0
 11 12  1  0
 12 13  1  0
 13 14  1  0
 14 15  1  0
 15 16  1  0
 16 17  1  0
 17 18  1  0
 18 19  1  0
  7 20  1  0
 20 21  1  0
 21 22  2  0
 22  2  1  0
 21  5  1  0
 19 15  1  0
  3 23  1  0
  4 24  1  0
  8 25  1  0
  8 26  1  0
  9 27  1  0
 10 28  1  0
 10 29  1  0
 11 30  1  0
 11 31  1  0
 12 32  1  0
 12 33  1  0
 13 34  1  0
 13 35  1  0
 14 36  1  0
 14 37  1  0
 16 38  1  0
 16 39  1  0
 17 40  1  0
 17 41  1  0
 18 42  1  0
 18 43  1  0
 19 44  1  0
 19 45  1  0
 22 46  1  0
M  END
>  <Energy>  (40) 
359.11506498707604

>  <compound_id>  (40) 
28936

>  <target_id>  (40) 
1

>  <reference_id>  (40) 
124

>  <inspiration_ids>  (40) 
[68, 124]

>  <energy_score>  (40) 
250.76546181156624

>  <distance_score>  (40) 
17.289383349277795

>  <path>  (40) 
/opt/xchem-fragalysis-2/maxwin/BulkDock/SCRATCH/511017/C28936-P124/C28936-P124.minimised.mol

>  <scratch_subdir>  (40) 
/opt/xchem-fragalysis-2/maxwin/BulkDock/SCRATCH/511017/C28936-P124

>  <fragmenstein_runtime>  (40) 
11.989847898483276

>  <fragmenstein_outcome>  (40) 
too moved

>  <fragmenstein_mode>  (40) 
expansion

>  <fragmenstein_error>  (40) 


$$$$
C28941-P68
     RDKit          3D

 43 45  0  0  0  0  0  0  0  0999 V2000
    7.5218  -15.5143   14.2078 C   0  0  0  0  0  0  0  0  0  0  0  0
    7.4602  -15.7538   15.7218 C   0  0  0  0  0  0  0  0  0  0  0  0
    7.6715  -14.2817   16.4384 C   0  0  0  0  0  0  0  0  0  0  0  0
    9.0130  -13.4899   16.0913 C   0  0  0  0  0  0  0  0  0  0  0  0
    9.2215  -12.1569   16.7191 N   0  0  0  0  0  0  0  0  0  0  0  0
    8.4567  -11.0711   16.0857 C   0  0  0  0  0  0  0  0  0  0  0  0
    9.1786   -9.7851   16.4938 C   0  0  0  0  0  0  0  0  0  0  0  0
   10.5552  -10.2304   16.9617 C   0  0  0  0  0  0  0  0  0  0  0  0
   10.6207  -11.7041   16.6002 C   0  0  0  0  0  0  0  0  0  0  0  0
    6.1968  -16.6173   16.1641 N   0  0  0  0  0  0  0  0  0  0  0  0
    5.8754  -18.0415   15.4466 C   0  0  0  0  0  0  0  0  0  0  0  0
    4.6771  -19.2427   15.9402 C   0  0  0  0  0  0  0  0  0  0  0  0
    3.5121  -19.0926   16.5665 N   0  0  0  0  0  0  0  0  0  0  0  0
    2.9063  -20.3469   16.9568 C   0  0  0  0  0  0  0  0  0  0  0  0
    1.8238  -20.5061   17.8555 C   0  0  0  0  0  0  0  0  0  0  0  0
    1.4253  -21.7524   18.3575 C   0  0  0  0  0  0  0  0  0  0  0  0
    1.9695  -22.9051   17.8471 C   0  0  0  0  0  0  0  0  0  0  0  0
    1.2565  -24.5066   18.5860 Br  0  0  0  0  0  0  0  0  0  0  0  0
    3.0142  -22.8209   16.8990 C   0  0  0  0  0  0  0  0  0  0  0  0
    3.5166  -21.5165   16.5129 C   0  0  0  0  0  0  0  0  0  0  0  0
    4.9080  -20.9971   15.5500 S   0  0  0  0  0  0  0  0  0  0  0  0
    7.3920  -16.4533   13.6603 H   0  0  0  0  0  0  0  0  0  0  0  0
    8.4904  -15.1145   13.8974 H   0  0  0  0  0  0  0  0  0  0  0  0
    6.7341  -14.8260   13.8853 H   0  0  0  0  0  0  0  0  0  0  0  0
    8.3206  -16.3669   16.0157 H   0  0  0  0  0  0  0  0  0  0  0  0
    7.6361  -14.4408   17.5230 H   0  0  0  0  0  0  0  0  0  0  0  0
    6.8110  -13.6562   16.1716 H   0  0  0  0  0  0  0  0  0  0  0  0
    9.8292  -14.1493   16.4146 H   0  0  0  0  0  0  0  0  0  0  0  0
    9.1062  -13.3893   15.0048 H   0  0  0  0  0  0  0  0  0  0  0  0
    7.4138  -11.0676   16.4179 H   0  0  0  0  0  0  0  0  0  0  0  0
    8.4682  -11.1579   14.9917 H   0  0  0  0  0  0  0  0  0  0  0  0
    8.6481   -9.2780   17.3073 H   0  0  0  0  0  0  0  0  0  0  0  0
    9.2455   -9.0907   15.6501 H   0  0  0  0  0  0  0  0  0  0  0  0
   11.3574   -9.6622   16.4873 H   0  0  0  0  0  0  0  0  0  0  0  0
   10.6392  -10.1087   18.0477 H   0  0  0  0  0  0  0  0  0  0  0  0
   11.2841  -12.2535   17.2756 H   0  0  0  0  0  0  0  0  0  0  0  0
   10.9909  -11.8211   15.5733 H   0  0  0  0  0  0  0  0  0  0  0  0
    5.3627  -16.0504   15.9962 H   0  0  0  0  0  0  0  0  0  0  0  0
    5.5982  -17.8156   14.4108 H   0  0  0  0  0  0  0  0  0  0  0  0
    6.8198  -18.5977   15.4688 H   0  0  0  0  0  0  0  0  0  0  0  0
    1.3714  -19.5987   18.2183 H   0  0  0  0  0  0  0  0  0  0  0  0
    0.7144  -21.8066   19.1748 H   0  0  0  0  0  0  0  0  0  0  0  0
    3.4980  -23.7187   16.5294 H   0  0  0  0  0  0  0  0  0  0  0  0
  1  2  1  0
  2  3  1  0
  3  4  1  0
  4  5  1  0
  5  6  1  0
  6  7  1  0
  7  8  1  0
  8  9  1  0
  2 10  1  0
 10 11  1  0
 11 12  1  0
 12 13  2  0
 13 14  1  0
 14 15  2  0
 15 16  1  0
 16 17  2  0
 17 18  1  0
 17 19  1  0
 19 20  2  0
 20 21  1  0
  9  5  1  0
 21 12  1  0
 20 14  1  0
  1 22  1  0
  1 23  1  0
  1 24  1  0
  2 25  1  0
  3 26  1  0
  3 27  1  0
  4 28  1  0
  4 29  1  0
  6 30  1  0
  6 31  1  0
  7 32  1  0
  7 33  1  0
  8 34  1  0
  8 35  1  0
  9 36  1  0
  9 37  1  0
 10 38  1  0
 11 39  1  0
 11 40  1  0
 15 41  1  0
 16 42  1  0
 19 43  1  0
M  END
>  <Energy>  (41) 
102.59644690577946

>  <compound_id>  (41) 
28941

>  <target_id>  (41) 
1

>  <reference_id>  (41) 
68

>  <inspiration_ids>  (41) 
[68, 124]

>  <energy_score>  (41) 
-30.59998097234424

>  <distance_score>  (41) 
16.981675235196104

>  <path>  (41) 
/opt/xchem-fragalysis-2/maxwin/BulkDock/SCRATCH/511017/C28941-P68/C28941-P68.minimised.mol

>  <scratch_subdir>  (41) 
/opt/xchem-fragalysis-2/maxwin/BulkDock/SCRATCH/511017/C28941-P68

>  <fragmenstein_runtime>  (41) 
19.949039936065674

>  <fragmenstein_outcome>  (41) 
too moved

>  <fragmenstein_mode>  (41) 
expansion

>  <fragmenstein_error>  (41) 


$$$$
C28941-P124
     RDKit          3D

 43 45  0  0  0  0  0  0  0  0999 V2000
   10.5601  -15.8950   22.3773 C   0  0  0  0  0  0  0  0  0  0  0  0
    9.4648  -15.2318   23.2238 C   0  0  0  0  0  0  0  0  0  0  0  0
    9.9749  -13.6923   23.5637 C   0  0  0  0  0  0  0  0  0  0  0  0
   10.6468  -12.8288   22.3937 C   0  0  0  0  0  0  0  0  0  0  0  0
   11.1640  -11.4819   22.7561 N   0  0  0  0  0  0  0  0  0  0  0  0
   12.2663  -11.0253   21.8880 C   0  0  0  0  0  0  0  0  0  0  0  0
   12.4348   -9.5776   22.3217 C   0  0  0  0  0  0  0  0  0  0  0  0
   11.0057   -9.1004   22.5250 C   0  0  0  0  0  0  0  0  0  0  0  0
   10.1807  -10.3895   22.6788 C   0  0  0  0  0  0  0  0  0  0  0  0
    8.9864  -16.1476   24.4580 N   0  0  0  0  0  0  0  0  0  0  0  0
    8.3301  -17.6068   24.1704 C   0  0  0  0  0  0  0  0  0  0  0  0
    7.5846  -18.7702   25.3065 C   0  0  0  0  0  0  0  0  0  0  0  0
    6.3796  -18.7335   25.9123 N   0  0  0  0  0  0  0  0  0  0  0  0
    5.8478  -20.0469   26.2764 C   0  0  0  0  0  0  0  0  0  0  0  0
    4.5740  -20.3429   26.8543 C   0  0  0  0  0  0  0  0  0  0  0  0
    4.1143  -21.6703   27.0247 C   0  0  0  0  0  0  0  0  0  0  0  0
    4.8704  -22.7385   26.5713 C   0  0  0  0  0  0  0  0  0  0  0  0
    4.0659  -24.4833   26.5809 Br  0  0  0  0  0  0  0  0  0  0  0  0
    6.1765  -22.4951   26.0883 C   0  0  0  0  0  0  0  0  0  0  0  0
    6.6556  -21.1351   25.9567 C   0  0  0  0  0  0  0  0  0  0  0  0
    8.2097  -20.4679   25.4059 S   0  0  0  0  0  0  0  0  0  0  0  0
   10.6995  -15.3778   21.4236 H   0  0  0  0  0  0  0  0  0  0  0  0
   10.2887  -16.9258   22.1289 H   0  0  0  0  0  0  0  0  0  0  0  0
   11.5131  -15.9190   22.9153 H   0  0  0  0  0  0  0  0  0  0  0  0
    8.5648  -15.1223   22.6065 H   0  0  0  0  0  0  0  0  0  0  0  0
   10.7058  -13.7745   24.3784 H   0  0  0  0  0  0  0  0  0  0  0  0
    9.1114  -13.1438   23.9584 H   0  0  0  0  0  0  0  0  0  0  0  0
   11.5085  -13.4144   22.0528 H   0  0  0  0  0  0  0  0  0  0  0  0
    9.9527  -12.7691   21.5467 H   0  0  0  0  0  0  0  0  0  0  0  0
   11.9935  -11.0895   20.8275 H   0  0  0  0  0  0  0  0  0  0  0  0
   13.1820  -11.6000   22.0579 H   0  0  0  0  0  0  0  0  0  0  0  0
   12.9934   -8.9721   21.6063 H   0  0  0  0  0  0  0  0  0  0  0  0
   12.9744   -9.5341   23.2765 H   0  0  0  0  0  0  0  0  0  0  0  0
   10.6558   -8.5288   21.6590 H   0  0  0  0  0  0  0  0  0  0  0  0
   10.9305   -8.4614   23.4108 H   0  0  0  0  0  0  0  0  0  0  0  0
    9.5229  -10.4993   21.8077 H   0  0  0  0  0  0  0  0  0  0  0  0
    9.5567  -10.3583   23.5774 H   0  0  0  0  0  0  0  0  0  0  0  0
    9.8118  -16.3259   25.0321 H   0  0  0  0  0  0  0  0  0  0  0  0
    9.1132  -18.1983   23.6827 H   0  0  0  0  0  0  0  0  0  0  0  0
    7.5226  -17.4229   23.4532 H   0  0  0  0  0  0  0  0  0  0  0  0
    3.9368  -19.5121   27.1435 H   0  0  0  0  0  0  0  0  0  0  0  0
    3.1491  -21.8422   27.4858 H   0  0  0  0  0  0  0  0  0  0  0  0
    6.8027  -23.3140   25.7494 H   0  0  0  0  0  0  0  0  0  0  0  0
  1  2  1  0
  2  3  1  0
  3  4  1  0
  4  5  1  0
  5  6  1  0
  6  7  1  0
  7  8  1  0
  8  9  1  0
  2 10  1  0
 10 11  1  0
 11 12  1  0
 12 13  2  0
 13 14  1  0
 14 15  2  0
 15 16  1  0
 16 17  2  0
 17 18  1  0
 17 19  1  0
 19 20  2  0
 20 21  1  0
  9  5  1  0
 21 12  1  0
 20 14  1  0
  1 22  1  0
  1 23  1  0
  1 24  1  0
  2 25  1  0
  3 26  1  0
  3 27  1  0
  4 28  1  0
  4 29  1  0
  6 30  1  0
  6 31  1  0
  7 32  1  0
  7 33  1  0
  8 34  1  0
  8 35  1  0
  9 36  1  0
  9 37  1  0
 10 38  1  0
 11 39  1  0
 11 40  1  0
 15 41  1  0
 16 42  1  0
 19 43  1  0
M  END
>  <Energy>  (42) 
114.03556817847456

>  <compound_id>  (42) 
28941

>  <target_id>  (42) 
1

>  <reference_id>  (42) 
124

>  <inspiration_ids>  (42) 
[68, 124]

>  <energy_score>  (42) 
-19.1608596996511

>  <distance_score>  (42) 
17.75732246072064

>  <path>  (42) 
/opt/xchem-fragalysis-2/maxwin/BulkDock/SCRATCH/511017/C28941-P124/C28941-P124.minimised.mol

>  <scratch_subdir>  (42) 
/opt/xchem-fragalysis-2/maxwin/BulkDock/SCRATCH/511017/C28941-P124

>  <fragmenstein_runtime>  (42) 
16.149658918380737

>  <fragmenstein_outcome>  (42) 
too moved

>  <fragmenstein_mode>  (42) 
expansion

>  <fragmenstein_error>  (42) 


$$$$
C28951-P68
     RDKit          3D

 44 48  0  0  0  0  0  0  0  0999 V2000
   -5.0625  -26.6545   21.5104 O   0  0  0  0  0  0  0  0  0  0  0  0
   -5.0672  -25.5239   21.0358 C   0  0  0  0  0  0  0  0  0  0  0  0
   -5.6245  -25.1889   19.8241 N   0  0  0  0  0  0  0  0  0  0  0  0
   -5.4835  -23.8354   19.6487 C   0  0  0  0  0  0  0  0  0  0  0  0
   -5.9029  -23.0000   18.6320 C   0  0  0  0  0  0  0  0  0  0  0  0
   -5.6433  -21.6011   18.7449 C   0  0  0  0  0  0  0  0  0  0  0  0
   -4.9306  -21.0665   19.8458 C   0  0  0  0  0  0  0  0  0  0  0  0
   -5.0086  -19.1781   20.2292 S   0  0  0  0  0  0  0  0  0  0  0  0
   -4.2595  -19.0391   21.4570 O   0  0  0  0  0  0  0  0  0  0  0  0
   -6.4470  -18.9658   20.1989 O   0  0  0  0  0  0  0  0  0  0  0  0
   -4.3063  -18.0193   18.9067 N   0  0  0  0  0  0  0  0  0  0  0  0
   -3.6655  -16.4422   19.0515 C   0  0  0  0  0  0  0  0  0  0  0  0
   -3.9045  -15.4144   18.0968 C   0  0  0  0  0  0  0  0  0  0  0  0
   -2.9383  -14.2678   17.6841 C   0  0  0  0  0  0  0  0  0  0  0  0
   -1.4809  -14.3607   17.8860 C   0  0  0  0  0  0  0  0  0  0  0  0
   -0.1746  -13.6792   17.3558 N   0  0  0  0  0  0  0  0  0  0  0  0
    1.2012  -13.9591   17.5664 C   0  0  0  0  0  0  0  0  0  0  0  0
    2.5200  -12.8507   17.4913 N   0  0  0  0  0  0  0  0  0  0  0  0
    3.3177  -12.2226   18.3271 C   0  0  0  0  0  0  0  0  0  0  0  0
    2.8593  -10.2053   18.1067 C   0  0  0  0  0  0  0  0  0  0  0  0
    3.5591   -9.9304   17.0292 C   0  0  0  0  0  0  0  0  0  0  0  0
    3.3417  -11.3943   16.3792 C   0  0  0  0  0  0  0  0  0  0  0  0
    0.9706  -16.0472   18.3941 S   0  0  0  0  0  0  0  0  0  0  0  0
   -1.1919  -15.3619   18.8652 C   0  0  0  0  0  0  0  0  0  0  0  0
   -2.4433  -16.1181   19.6524 C   0  0  0  0  0  0  0  0  0  0  0  0
   -4.5356  -21.9729   20.8836 C   0  0  0  0  0  0  0  0  0  0  0  0
   -4.8208  -23.3459   20.7513 C   0  0  0  0  0  0  0  0  0  0  0  0
   -4.5353  -24.3704   21.6603 O   0  0  0  0  0  0  0  0  0  0  0  0
   -6.0655  -25.8482   19.2039 H   0  0  0  0  0  0  0  0  0  0  0  0
   -6.4520  -23.3845   17.7781 H   0  0  0  0  0  0  0  0  0  0  0  0
   -6.0445  -20.9296   17.9880 H   0  0  0  0  0  0  0  0  0  0  0  0
   -5.1421  -17.8780   18.3282 H   0  0  0  0  0  0  0  0  0  0  0  0
   -4.8464  -15.4349   17.5439 H   0  0  0  0  0  0  0  0  0  0  0  0
   -3.2984  -13.5447   16.9538 H   0  0  0  0  0  0  0  0  0  0  0  0
    3.8426  -12.8051   19.1790 H   0  0  0  0  0  0  0  0  0  0  0  0
    4.1800  -12.2244   17.8515 H   0  0  0  0  0  0  0  0  0  0  0  0
    3.0363   -9.3676   18.8553 H   0  0  0  0  0  0  0  0  0  0  0  0
    1.9321   -9.7117   17.7125 H   0  0  0  0  0  0  0  0  0  0  0  0
    4.3841   -9.6140   17.6989 H   0  0  0  0  0  0  0  0  0  0  0  0
    3.1084   -8.9351   16.8752 H   0  0  0  0  0  0  0  0  0  0  0  0
    4.3064  -11.8042   16.2633 H   0  0  0  0  0  0  0  0  0  0  0  0
    3.5792  -11.3384   15.3270 H   0  0  0  0  0  0  0  0  0  0  0  0
   -2.2068  -16.6054   20.5970 H   0  0  0  0  0  0  0  0  0  0  0  0
   -4.0679  -21.6016   21.7918 H   0  0  0  0  0  0  0  0  0  0  0  0
  1  2  2  0
  2  3  1  0
  3  4  1  0
  4  5  2  0
  5  6  1  0
  6  7  2  0
  7  8  1  0
  8  9  2  0
  8 10  2  0
  8 11  1  0
 11 12  1  0
 12 13  2  0
 13 14  1  0
 14 15  2  0
 15 16  1  0
 16 17  2  0
 17 18  1  0
 18 19  1  0
 19 20  1  0
 20 21  1  0
 21 22  1  0
 17 23  1  0
 23 24  1  0
 24 25  2  0
  7 26  1  0
 26 27  2  0
 27 28  1  0
 28  2  1  0
 27  4  1  0
 25 12  1  0
 24 15  1  0
 22 18  1  0
  3 29  1  0
  5 30  1  0
  6 31  1  0
 11 32  1  0
 13 33  1  0
 14 34  1  0
 19 35  1  0
 19 36  1  0
 20 37  1  0
 20 38  1  0
 21 39  1  0
 21 40  1  0
 22 41  1  0
 22 42  1  0
 25 43  1  0
 26 44  1  0
M  END
>  <Energy>  (43) 
657.49422718628227

>  <compound_id>  (43) 
28951

>  <target_id>  (43) 
1

>  <reference_id>  (43) 
68

>  <inspiration_ids>  (43) 
[68, 124]

>  <energy_score>  (43) 
613.5782032555726

>  <distance_score>  (43) 
15.732390517182864

>  <path>  (43) 
/opt/xchem-fragalysis-2/maxwin/BulkDock/SCRATCH/511017/C28951-P68/C28951-P68.minimised.mol

>  <scratch_subdir>  (43) 
/opt/xchem-fragalysis-2/maxwin/BulkDock/SCRATCH/511017/C28951-P68

>  <fragmenstein_runtime>  (43) 
41.356667280197144

>  <fragmenstein_outcome>  (43) 
too moved

>  <fragmenstein_mode>  (43) 
expansion

>  <fragmenstein_error>  (43) 


$$$$
C28951-P124
     RDKit          3D

 44 48  0  0  0  0  0  0  0  0999 V2000
   -7.1200  -33.0328   22.1279 O   0  0  0  0  0  0  0  0  0  0  0  0
   -6.3167  -32.1843   21.7583 C   0  0  0  0  0  0  0  0  0  0  0  0
   -5.2071  -32.4492   20.9864 N   0  0  0  0  0  0  0  0  0  0  0  0
   -4.6260  -31.2553   20.6631 C   0  0  0  0  0  0  0  0  0  0  0  0
   -3.5605  -30.9639   19.8346 C   0  0  0  0  0  0  0  0  0  0  0  0
   -3.2382  -29.6047   19.6197 C   0  0  0  0  0  0  0  0  0  0  0  0
   -3.9747  -28.5886   20.2579 C   0  0  0  0  0  0  0  0  0  0  0  0
   -3.6987  -26.8150   19.8709 S   0  0  0  0  0  0  0  0  0  0  0  0
   -4.5197  -26.5782   18.7040 O   0  0  0  0  0  0  0  0  0  0  0  0
   -3.9657  -26.1415   21.1240 O   0  0  0  0  0  0  0  0  0  0  0  0
   -1.9869  -26.5541   19.4776 N   0  0  0  0  0  0  0  0  0  0  0  0
   -1.3543  -25.2188   19.0010 C   0  0  0  0  0  0  0  0  0  0  0  0
   -2.0475  -24.1982   18.3575 C   0  0  0  0  0  0  0  0  0  0  0  0
   -1.3801  -23.0269   17.8047 C   0  0  0  0  0  0  0  0  0  0  0  0
    0.0424  -22.8223   17.8147 C   0  0  0  0  0  0  0  0  0  0  0  0
    0.8161  -21.7255   17.2705 N   0  0  0  0  0  0  0  0  0  0  0  0
    2.1307  -21.9286   17.3063 C   0  0  0  0  0  0  0  0  0  0  0  0
    3.1196  -21.1481   16.6758 N   0  0  0  0  0  0  0  0  0  0  0  0
    2.7171  -20.1381   15.6891 C   0  0  0  0  0  0  0  0  0  0  0  0
    3.9429  -19.8087   14.8236 C   0  0  0  0  0  0  0  0  0  0  0  0
    5.0443  -20.7528   15.2682 C   0  0  0  0  0  0  0  0  0  0  0  0
    4.3872  -21.7393   16.2455 C   0  0  0  0  0  0  0  0  0  0  0  0
    2.4815  -23.3758   18.2695 S   0  0  0  0  0  0  0  0  0  0  0  0
    0.7700  -23.8477   18.4139 C   0  0  0  0  0  0  0  0  0  0  0  0
    0.0846  -25.0329   18.9971 C   0  0  0  0  0  0  0  0  0  0  0  0
   -5.0456  -28.9307   21.1274 C   0  0  0  0  0  0  0  0  0  0  0  0
   -5.3571  -30.2750   21.2950 C   0  0  0  0  0  0  0  0  0  0  0  0
   -6.4183  -30.8043   22.0214 O   0  0  0  0  0  0  0  0  0  0  0  0
   -4.9653  -33.3732   20.6763 H   0  0  0  0  0  0  0  0  0  0  0  0
   -3.0104  -31.7495   19.3283 H   0  0  0  0  0  0  0  0  0  0  0  0
   -2.4424  -29.3484   18.9237 H   0  0  0  0  0  0  0  0  0  0  0  0
   -1.4259  -26.9393   20.2399 H   0  0  0  0  0  0  0  0  0  0  0  0
   -3.1288  -24.2587   18.2448 H   0  0  0  0  0  0  0  0  0  0  0  0
   -1.9909  -22.2668   17.3197 H   0  0  0  0  0  0  0  0  0  0  0  0
    2.2929  -19.2564   16.1737 H   0  0  0  0  0  0  0  0  0  0  0  0
    1.9757  -20.5725   15.0150 H   0  0  0  0  0  0  0  0  0  0  0  0
    4.2285  -18.7561   14.8699 H   0  0  0  0  0  0  0  0  0  0  0  0
    3.6994  -19.9920   13.7693 H   0  0  0  0  0  0  0  0  0  0  0  0
    5.4645  -21.2934   14.4119 H   0  0  0  0  0  0  0  0  0  0  0  0
    5.8915  -20.2398   15.7261 H   0  0  0  0  0  0  0  0  0  0  0  0
    4.1996  -22.6821   15.7156 H   0  0  0  0  0  0  0  0  0  0  0  0
    5.0465  -21.9560   17.0918 H   0  0  0  0  0  0  0  0  0  0  0  0
    0.7206  -25.8054   19.4244 H   0  0  0  0  0  0  0  0  0  0  0  0
   -5.6420  -28.1641   21.6120 H   0  0  0  0  0  0  0  0  0  0  0  0
  1  2  2  0
  2  3  1  0
  3  4  1  0
  4  5  2  0
  5  6  1  0
  6  7  2  0
  7  8  1  0
  8  9  2  0
  8 10  2  0
  8 11  1  0
 11 12  1  0
 12 13  2  0
 13 14  1  0
 14 15  2  0
 15 16  1  0
 16 17  2  0
 17 18  1  0
 18 19  1  0
 19 20  1  0
 20 21  1  0
 21 22  1  0
 17 23  1  0
 23 24  1  0
 24 25  2  0
  7 26  1  0
 26 27  2  0
 27 28  1  0
 28  2  1  0
 27  4  1  0
 25 12  1  0
 24 15  1  0
 22 18  1  0
  3 29  1  0
  5 30  1  0
  6 31  1  0
 11 32  1  0
 13 33  1  0
 14 34  1  0
 19 35  1  0
 19 36  1  0
 20 37  1  0
 20 38  1  0
 21 39  1  0
 21 40  1  0
 22 41  1  0
 22 42  1  0
 25 43  1  0
 26 44  1  0
M  END
>  <Energy>  (44) 
-14.038252124831455

>  <compound_id>  (44) 
28951

>  <target_id>  (44) 
1

>  <reference_id>  (44) 
124

>  <inspiration_ids>  (44) 
[68, 124]

>  <energy_score>  (44) 
-57.95427605553601

>  <distance_score>  (44) 
17.09307894305635

>  <path>  (44) 
/opt/xchem-fragalysis-2/maxwin/BulkDock/SCRATCH/511017/C28951-P124/C28951-P124.minimised.mol

>  <scratch_subdir>  (44) 
/opt/xchem-fragalysis-2/maxwin/BulkDock/SCRATCH/511017/C28951-P124

>  <fragmenstein_runtime>  (44) 
33.37873435020447

>  <fragmenstein_outcome>  (44) 
too moved

>  <fragmenstein_mode>  (44) 
expansion

>  <fragmenstein_error>  (44) 


$$$$
C28953-P68
     RDKit          3D

 43 45  0  0  0  0  0  0  0  0999 V2000
   -1.4398  -29.9137   21.8540 Br  0  0  0  0  0  0  0  0  0  0  0  0
    0.2607  -29.4431   21.1661 C   0  0  0  0  0  0  0  0  0  0  0  0
    1.2633  -30.3927   21.0113 C   0  0  0  0  0  0  0  0  0  0  0  0
    2.5343  -30.0181   20.4992 C   0  0  0  0  0  0  0  0  0  0  0  0
    2.8163  -28.6736   20.1177 C   0  0  0  0  0  0  0  0  0  0  0  0
    4.0238  -28.1179   19.5348 N   0  0  0  0  0  0  0  0  0  0  0  0
    3.9134  -26.8092   19.2511 C   0  0  0  0  0  0  0  0  0  0  0  0
    4.9447  -25.7651   18.3226 C   0  0  0  0  0  0  0  0  0  0  0  0
    6.2543  -25.0208   18.8920 N   0  0  0  0  0  0  0  0  0  0  0  0
    6.8745  -23.8723   17.9746 C   0  0  0  0  0  0  0  0  0  0  0  0
    8.1123  -22.8283   18.5685 C   0  0  0  0  0  0  0  0  0  0  0  0
    8.7347  -21.4614   17.7136 C   0  0  0  0  0  0  0  0  0  0  0  0
    9.4667  -20.2684   18.5635 C   0  0  0  0  0  0  0  0  0  0  0  0
    9.7610  -18.9232   17.9699 N   0  0  0  0  0  0  0  0  0  0  0  0
   10.4736  -18.0287   18.9245 C   0  0  0  0  0  0  0  0  0  0  0  0
   11.2416  -16.9936   18.0899 C   0  0  0  0  0  0  0  0  0  0  0  0
   11.0144  -17.4262   16.6532 C   0  0  0  0  0  0  0  0  0  0  0  0
   10.6112  -18.8987   16.7763 C   0  0  0  0  0  0  0  0  0  0  0  0
    2.2843  -26.2583   19.6658 S   0  0  0  0  0  0  0  0  0  0  0  0
    1.7751  -27.7697   20.2887 C   0  0  0  0  0  0  0  0  0  0  0  0
    0.5024  -28.1170   20.8122 C   0  0  0  0  0  0  0  0  0  0  0  0
    1.0844  -31.4324   21.2761 H   0  0  0  0  0  0  0  0  0  0  0  0
    3.3107  -30.7677   20.3742 H   0  0  0  0  0  0  0  0  0  0  0  0
    4.2820  -24.9781   17.9443 H   0  0  0  0  0  0  0  0  0  0  0  0
    5.2762  -26.3845   17.4809 H   0  0  0  0  0  0  0  0  0  0  0  0
    6.9651  -25.7567   18.9424 H   0  0  0  0  0  0  0  0  0  0  0  0
    7.2819  -24.3665   17.0858 H   0  0  0  0  0  0  0  0  0  0  0  0
    6.0452  -23.2337   17.6573 H   0  0  0  0  0  0  0  0  0  0  0  0
    7.7870  -22.4606   19.5456 H   0  0  0  0  0  0  0  0  0  0  0  0
    8.9781  -23.4755   18.7582 H   0  0  0  0  0  0  0  0  0  0  0  0
    9.4833  -21.8702   17.0223 H   0  0  0  0  0  0  0  0  0  0  0  0
    7.9418  -21.0674   17.0757 H   0  0  0  0  0  0  0  0  0  0  0  0
    8.8263  -20.0949   19.4370 H   0  0  0  0  0  0  0  0  0  0  0  0
   10.3996  -20.7058   18.9427 H   0  0  0  0  0  0  0  0  0  0  0  0
    9.7700  -17.5547   19.6142 H   0  0  0  0  0  0  0  0  0  0  0  0
   11.1953  -18.5947   19.5275 H   0  0  0  0  0  0  0  0  0  0  0  0
   12.3092  -17.0395   18.3345 H   0  0  0  0  0  0  0  0  0  0  0  0
   10.9046  -15.9691   18.2669 H   0  0  0  0  0  0  0  0  0  0  0  0
   11.9050  -17.2912   16.0326 H   0  0  0  0  0  0  0  0  0  0  0  0
   10.1968  -16.8474   16.2078 H   0  0  0  0  0  0  0  0  0  0  0  0
   11.5024  -19.5243   16.9109 H   0  0  0  0  0  0  0  0  0  0  0  0
   10.0721  -19.2397   15.8875 H   0  0  0  0  0  0  0  0  0  0  0  0
   -0.2688  -27.3568   20.9066 H   0  0  0  0  0  0  0  0  0  0  0  0
  1  2  1  0
  2  3  2  0
  3  4  1  0
  4  5  2  0
  5  6  1  0
  6  7  2  0
  7  8  1  0
  8  9  1  0
  9 10  1  0
 10 11  1  0
 11 12  1  0
 12 13  1  0
 13 14  1  0
 14 15  1  0
 15 16  1  0
 16 17  1  0
 17 18  1  0
  7 19  1  0
 19 20  1  0
 20 21  2  0
 21  2  1  0
 20  5  1  0
 18 14  1  0
  3 22  1  0
  4 23  1  0
  8 24  1  0
  8 25  1  0
  9 26  1  0
 10 27  1  0
 10 28  1  0
 11 29  1  0
 11 30  1  0
 12 31  1  0
 12 32  1  0
 13 33  1  0
 13 34  1  0
 15 35  1  0
 15 36  1  0
 16 37  1  0
 16 38  1  0
 17 39  1  0
 17 40  1  0
 18 41  1  0
 18 42  1  0
 21 43  1  0
M  END
>  <Energy>  (45) 
111.33645891583973

>  <compound_id>  (45) 
28953

>  <target_id>  (45) 
1

>  <reference_id>  (45) 
68

>  <inspiration_ids>  (45) 
[68, 124]

>  <energy_score>  (45) 
20.64245401945857

>  <distance_score>  (45) 
16.40382836908726

>  <path>  (45) 
/opt/xchem-fragalysis-2/maxwin/BulkDock/SCRATCH/511017/C28953-P68/C28953-P68.minimised.mol

>  <scratch_subdir>  (45) 
/opt/xchem-fragalysis-2/maxwin/BulkDock/SCRATCH/511017/C28953-P68

>  <fragmenstein_runtime>  (45) 
10.96906566619873

>  <fragmenstein_outcome>  (45) 
too moved

>  <fragmenstein_mode>  (45) 
expansion

>  <fragmenstein_error>  (45) 


$$$$
C28953-P124
     RDKit          3D

 43 45  0  0  0  0  0  0  0  0999 V2000
    3.6365  -21.4701   14.9875 Br  0  0  0  0  0  0  0  0  0  0  0  0
    5.1287  -20.2574   14.8385 C   0  0  0  0  0  0  0  0  0  0  0  0
    6.3129  -20.5464   15.5139 C   0  0  0  0  0  0  0  0  0  0  0  0
    7.3373  -19.5481   15.6497 C   0  0  0  0  0  0  0  0  0  0  0  0
    7.2119  -18.2171   15.1007 C   0  0  0  0  0  0  0  0  0  0  0  0
    8.0525  -17.0100   15.3243 N   0  0  0  0  0  0  0  0  0  0  0  0
    7.6134  -15.8894   14.7107 C   0  0  0  0  0  0  0  0  0  0  0  0
    8.0987  -14.1289   14.6163 C   0  0  0  0  0  0  0  0  0  0  0  0
    9.1382  -13.1566   15.5104 N   0  0  0  0  0  0  0  0  0  0  0  0
    9.1030  -11.4631   15.2675 C   0  0  0  0  0  0  0  0  0  0  0  0
   10.3137  -10.1805   15.8221 C   0  0  0  0  0  0  0  0  0  0  0  0
   10.0702   -8.3636   15.8265 C   0  0  0  0  0  0  0  0  0  0  0  0
   11.3252   -6.9491   15.9427 C   0  0  0  0  0  0  0  0  0  0  0  0
   11.5546   -5.1905   16.3441 N   0  0  0  0  0  0  0  0  0  0  0  0
   11.3806   -4.0176   15.3826 C   0  0  0  0  0  0  0  0  0  0  0  0
   12.6300   -3.1252   15.4373 C   0  0  0  0  0  0  0  0  0  0  0  0
   13.5758   -3.8349   16.3886 C   0  0  0  0  0  0  0  0  0  0  0  0
   12.5852   -4.6068   17.2246 C   0  0  0  0  0  0  0  0  0  0  0  0
    6.2719  -16.4070   13.6151 S   0  0  0  0  0  0  0  0  0  0  0  0
    6.0814  -18.0100   14.3096 C   0  0  0  0  0  0  0  0  0  0  0  0
    5.0265  -19.0117   14.1741 C   0  0  0  0  0  0  0  0  0  0  0  0
    6.4423  -21.5041   16.0133 H   0  0  0  0  0  0  0  0  0  0  0  0
    8.2196  -19.7651   16.2485 H   0  0  0  0  0  0  0  0  0  0  0  0
    7.1327  -13.6208   14.7108 H   0  0  0  0  0  0  0  0  0  0  0  0
    8.4577  -14.0353   13.5839 H   0  0  0  0  0  0  0  0  0  0  0  0
   10.0736  -13.4442   15.2142 H   0  0  0  0  0  0  0  0  0  0  0  0
    9.0594  -11.3499   14.1792 H   0  0  0  0  0  0  0  0  0  0  0  0
    8.1495  -11.1608   15.7127 H   0  0  0  0  0  0  0  0  0  0  0  0
   10.5347  -10.4360   16.8646 H   0  0  0  0  0  0  0  0  0  0  0  0
   11.2071  -10.3546   15.2119 H   0  0  0  0  0  0  0  0  0  0  0  0
    9.2817   -8.1826   16.5661 H   0  0  0  0  0  0  0  0  0  0  0  0
    9.6043   -8.2147   14.8403 H   0  0  0  0  0  0  0  0  0  0  0  0
   10.9553   -6.7419   14.9440 H   0  0  0  0  0  0  0  0  0  0  0  0
   12.3062   -7.3851   15.9243 H   0  0  0  0  0  0  0  0  0  0  0  0
   10.5930   -3.3674   15.7851 H   0  0  0  0  0  0  0  0  0  0  0  0
   11.0363   -4.2211   14.3615 H   0  0  0  0  0  0  0  0  0  0  0  0
   12.3484   -2.1565   15.8611 H   0  0  0  0  0  0  0  0  0  0  0  0
   13.0494   -2.8921   14.4594 H   0  0  0  0  0  0  0  0  0  0  0  0
   14.2879   -4.4957   15.9004 H   0  0  0  0  0  0  0  0  0  0  0  0
   14.1460   -3.1128   16.9825 H   0  0  0  0  0  0  0  0  0  0  0  0
   12.9430   -5.1037   18.1086 H   0  0  0  0  0  0  0  0  0  0  0  0
   12.1025   -3.7791   17.7354 H   0  0  0  0  0  0  0  0  0  0  0  0
    4.1249  -18.7580   13.6162 H   0  0  0  0  0  0  0  0  0  0  0  0
  1  2  1  0
  2  3  2  0
  3  4  1  0
  4  5  2  0
  5  6  1  0
  6  7  2  0
  7  8  1  0
  8  9  1  0
  9 10  1  0
 10 11  1  0
 11 12  1  0
 12 13  1  0
 13 14  1  0
 14 15  1  0
 15 16  1  0
 16 17  1  0
 17 18  1  0
  7 19  1  0
 19 20  1  0
 20 21  2  0
 21  2  1  0
 20  5  1  0
 18 14  1  0
  3 22  1  0
  4 23  1  0
  8 24  1  0
  8 25  1  0
  9 26  1  0
 10 27  1  0
 10 28  1  0
 11 29  1  0
 11 30  1  0
 12 31  1  0
 12 32  1  0
 13 33  1  0
 13 34  1  0
 15 35  1  0
 15 36  1  0
 16 37  1  0
 16 38  1  0
 17 39  1  0
 17 40  1  0
 18 41  1  0
 18 42  1  0
 21 43  1  0
M  END
>  <Energy>  (46) 
328.98446942532507

>  <compound_id>  (46) 
28953

>  <target_id>  (46) 
1

>  <reference_id>  (46) 
124

>  <inspiration_ids>  (46) 
[68, 124]

>  <energy_score>  (46) 
238.29046452894715

>  <distance_score>  (46) 
18.082519078338105

>  <path>  (46) 
/opt/xchem-fragalysis-2/maxwin/BulkDock/SCRATCH/511017/C28953-P124/C28953-P124.minimised.mol

>  <scratch_subdir>  (46) 
/opt/xchem-fragalysis-2/maxwin/BulkDock/SCRATCH/511017/C28953-P124

>  <fragmenstein_runtime>  (46) 
5.7059173583984375

>  <fragmenstein_outcome>  (46) 
too moved

>  <fragmenstein_mode>  (46) 
expansion

>  <fragmenstein_error>  (46) 


$$$$
C28956-P68
     RDKit          3D

 39 42  0  0  0  0  0  0  0  0999 V2000
    7.0728  -18.4604   13.9328 N   0  0  0  0  0  0  0  0  0  0  0  0
    6.2291  -18.1905   14.6829 C   0  0  0  0  0  0  0  0  0  0  0  0
    5.2223  -17.7850   15.6213 C   0  0  0  0  0  0  0  0  0  0  0  0
    5.3500  -16.4972   16.1623 C   0  0  0  0  0  0  0  0  0  0  0  0
    6.3902  -15.3206   16.0062 C   0  0  0  0  0  0  0  0  0  0  0  0
    7.0954  -14.9274   14.8772 C   0  0  0  0  0  0  0  0  0  0  0  0
    7.9733  -13.8618   14.7821 N   0  0  0  0  0  0  0  0  0  0  0  0
    8.2005  -13.1027   15.8669 C   0  0  0  0  0  0  0  0  0  0  0  0
    9.0811  -12.0556   15.7965 N   0  0  0  0  0  0  0  0  0  0  0  0
    9.8931  -11.7752   14.6244 C   0  0  0  0  0  0  0  0  0  0  0  0
   10.9951  -10.8625   15.1619 C   0  0  0  0  0  0  0  0  0  0  0  0
   10.3222  -10.1517   16.3269 C   0  0  0  0  0  0  0  0  0  0  0  0
    9.4557  -11.2483   16.9420 C   0  0  0  0  0  0  0  0  0  0  0  0
    7.5603  -13.3653   17.0165 N   0  0  0  0  0  0  0  0  0  0  0  0
    6.6883  -14.4352   17.0463 C   0  0  0  0  0  0  0  0  0  0  0  0
    4.2189  -18.9372   15.9837 C   0  0  0  0  0  0  0  0  0  0  0  0
    4.4029  -20.2563   15.7661 N   0  0  0  0  0  0  0  0  0  0  0  0
    3.4381  -21.1108   16.3852 C   0  0  0  0  0  0  0  0  0  0  0  0
    3.3860  -22.5370   16.4087 C   0  0  0  0  0  0  0  0  0  0  0  0
    2.4478  -23.2277   17.2035 C   0  0  0  0  0  0  0  0  0  0  0  0
    1.5752  -22.5189   18.0107 C   0  0  0  0  0  0  0  0  0  0  0  0
    1.5954  -21.1169   17.9848 C   0  0  0  0  0  0  0  0  0  0  0  0
    2.4835  -20.4272   17.1186 C   0  0  0  0  0  0  0  0  0  0  0  0
    2.6395  -18.7168   16.7337 S   0  0  0  0  0  0  0  0  0  0  0  0
    4.6026  -16.2219   16.9095 H   0  0  0  0  0  0  0  0  0  0  0  0
    6.9879  -15.4648   13.9368 H   0  0  0  0  0  0  0  0  0  0  0  0
    9.2928  -11.2557   13.8691 H   0  0  0  0  0  0  0  0  0  0  0  0
   10.3277  -12.6767   14.1789 H   0  0  0  0  0  0  0  0  0  0  0  0
   11.8354  -11.4643   15.5289 H   0  0  0  0  0  0  0  0  0  0  0  0
   11.3743  -10.1744   14.4024 H   0  0  0  0  0  0  0  0  0  0  0  0
    9.6907   -9.3373   15.9518 H   0  0  0  0  0  0  0  0  0  0  0  0
   11.0349   -9.7325   17.0413 H   0  0  0  0  0  0  0  0  0  0  0  0
    8.5897  -10.8182   17.4561 H   0  0  0  0  0  0  0  0  0  0  0  0
   10.0378  -11.8446   17.6542 H   0  0  0  0  0  0  0  0  0  0  0  0
    6.2167  -14.5600   18.0196 H   0  0  0  0  0  0  0  0  0  0  0  0
    4.1191  -23.0931   15.8324 H   0  0  0  0  0  0  0  0  0  0  0  0
    2.4663  -24.3120   17.2425 H   0  0  0  0  0  0  0  0  0  0  0  0
    0.9179  -23.0467   18.6977 H   0  0  0  0  0  0  0  0  0  0  0  0
    0.9674  -20.5539   18.6618 H   0  0  0  0  0  0  0  0  0  0  0  0
  1  2  3  0
  2  3  1  0
  3  4  2  3
  4  5  1  0
  5  6  2  0
  6  7  1  0
  7  8  2  0
  8  9  1  0
  9 10  1  0
 10 11  1  0
 11 12  1  0
 12 13  1  0
  8 14  1  0
 14 15  2  0
  3 16  1  0
 16 17  2  0
 17 18  1  0
 18 19  2  0
 19 20  1  0
 20 21  2  0
 21 22  1  0
 22 23  2  0
 23 24  1  0
 15  5  1  0
 24 16  1  0
 13  9  1  0
 23 18  1  0
  4 25  1  0
  6 26  1  0
 10 27  1  0
 10 28  1  0
 11 29  1  0
 11 30  1  0
 12 31  1  0
 12 32  1  0
 13 33  1  0
 13 34  1  0
 15 35  1  0
 19 36  1  0
 20 37  1  0
 21 38  1  0
 22 39  1  0
M  END
>  <Energy>  (47) 
13.892179147341476

>  <compound_id>  (47) 
28956

>  <target_id>  (47) 
1

>  <reference_id>  (47) 
68

>  <inspiration_ids>  (47) 
[68, 124]

>  <energy_score>  (47) 
-41.13059515426809

>  <distance_score>  (47) 
17.808847052855246

>  <path>  (47) 
/opt/xchem-fragalysis-2/maxwin/BulkDock/SCRATCH/511017/C28956-P68/C28956-P68.minimised.mol

>  <scratch_subdir>  (47) 
/opt/xchem-fragalysis-2/maxwin/BulkDock/SCRATCH/511017/C28956-P68

>  <fragmenstein_runtime>  (47) 
18.038390398025513

>  <fragmenstein_outcome>  (47) 
too moved

>  <fragmenstein_mode>  (47) 
expansion

>  <fragmenstein_error>  (47) 


$$$$
C28956-P124
     RDKit          3D

 39 42  0  0  0  0  0  0  0  0999 V2000
    9.9071  -20.2875   16.9526 N   0  0  0  0  0  0  0  0  0  0  0  0
    8.9131  -19.9455   16.4618 C   0  0  0  0  0  0  0  0  0  0  0  0
    7.6813  -19.5010   15.8761 C   0  0  0  0  0  0  0  0  0  0  0  0
    7.6098  -18.1413   15.5280 C   0  0  0  0  0  0  0  0  0  0  0  0
    8.5442  -16.8698   15.6521 C   0  0  0  0  0  0  0  0  0  0  0  0
    9.6314  -16.6579   16.4872 C   0  0  0  0  0  0  0  0  0  0  0  0
   10.3838  -15.5011   16.5890 N   0  0  0  0  0  0  0  0  0  0  0  0
   10.0668  -14.4425   15.8265 C   0  0  0  0  0  0  0  0  0  0  0  0
   10.8033  -13.2858   15.9220 N   0  0  0  0  0  0  0  0  0  0  0  0
   10.7232  -12.2267   14.9269 C   0  0  0  0  0  0  0  0  0  0  0  0
   12.0890  -11.5422   15.0079 C   0  0  0  0  0  0  0  0  0  0  0  0
   12.5508  -11.8296   16.4286 C   0  0  0  0  0  0  0  0  0  0  0  0
   12.0524  -13.2503   16.6628 C   0  0  0  0  0  0  0  0  0  0  0  0
    9.0205  -14.5097   14.9934 N   0  0  0  0  0  0  0  0  0  0  0  0
    8.3062  -15.6906   14.9377 C   0  0  0  0  0  0  0  0  0  0  0  0
    6.5357  -20.6094   15.7954 C   0  0  0  0  0  0  0  0  0  0  0  0
    5.2126  -20.4897   15.6062 N   0  0  0  0  0  0  0  0  0  0  0  0
    4.4435  -21.6911   15.8774 C   0  0  0  0  0  0  0  0  0  0  0  0
    3.0237  -21.8551   15.8767 C   0  0  0  0  0  0  0  0  0  0  0  0
    2.4171  -23.1073   16.1225 C   0  0  0  0  0  0  0  0  0  0  0  0
    3.2056  -24.2213   16.3725 C   0  0  0  0  0  0  0  0  0  0  0  0
    4.6041  -24.0901   16.4045 C   0  0  0  0  0  0  0  0  0  0  0  0
    5.2031  -22.8165   16.1693 C   0  0  0  0  0  0  0  0  0  0  0  0
    6.8781  -22.3391   16.1893 S   0  0  0  0  0  0  0  0  0  0  0  0
    6.6866  -17.8444   15.0230 H   0  0  0  0  0  0  0  0  0  0  0  0
    9.9782  -17.4333   17.1666 H   0  0  0  0  0  0  0  0  0  0  0  0
    9.9223  -11.5287   15.1943 H   0  0  0  0  0  0  0  0  0  0  0  0
   10.5468  -12.5987   13.9115 H   0  0  0  0  0  0  0  0  0  0  0  0
   12.7807  -12.0024   14.2919 H   0  0  0  0  0  0  0  0  0  0  0  0
   12.0336  -10.4732   14.7880 H   0  0  0  0  0  0  0  0  0  0  0  0
   13.6334  -11.7462   16.5526 H   0  0  0  0  0  0  0  0  0  0  0  0
   12.0665  -11.1365   17.1269 H   0  0  0  0  0  0  0  0  0  0  0  0
   11.9104  -13.4471   17.7306 H   0  0  0  0  0  0  0  0  0  0  0  0
   12.7664  -13.9754   16.2537 H   0  0  0  0  0  0  0  0  0  0  0  0
    7.4749  -15.6370   14.2358 H   0  0  0  0  0  0  0  0  0  0  0  0
    2.4017  -20.9843   15.6892 H   0  0  0  0  0  0  0  0  0  0  0  0
    1.3341  -23.1894   16.1335 H   0  0  0  0  0  0  0  0  0  0  0  0
    2.7437  -25.1827   16.5803 H   0  0  0  0  0  0  0  0  0  0  0  0
    5.2255  -24.9536   16.6247 H   0  0  0  0  0  0  0  0  0  0  0  0
  1  2  3  0
  2  3  1  0
  3  4  2  3
  4  5  1  0
  5  6  2  0
  6  7  1  0
  7  8  2  0
  8  9  1  0
  9 10  1  0
 10 11  1  0
 11 12  1  0
 12 13  1  0
  8 14  1  0
 14 15  2  0
  3 16  1  0
 16 17  2  0
 17 18  1  0
 18 19  2  0
 19 20  1  0
 20 21  2  0
 21 22  1  0
 22 23  2  0
 23 24  1  0
 15  5  1  0
 24 16  1  0
 13  9  1  0
 23 18  1  0
  4 25  1  0
  6 26  1  0
 10 27  1  0
 10 28  1  0
 11 29  1  0
 11 30  1  0
 12 31  1  0
 12 32  1  0
 13 33  1  0
 13 34  1  0
 15 35  1  0
 19 36  1  0
 20 37  1  0
 21 38  1  0
 22 39  1  0
M  END
>  <Energy>  (48) 
13.247014943979551

>  <compound_id>  (48) 
28956

>  <target_id>  (48) 
1

>  <reference_id>  (48) 
124

>  <inspiration_ids>  (48) 
[68, 124]

>  <energy_score>  (48) 
-41.77575935763144

>  <distance_score>  (48) 
18.14237765532222

>  <path>  (48) 
/opt/xchem-fragalysis-2/maxwin/BulkDock/SCRATCH/511017/C28956-P124/C28956-P124.minimised.mol

>  <scratch_subdir>  (48) 
/opt/xchem-fragalysis-2/maxwin/BulkDock/SCRATCH/511017/C28956-P124

>  <fragmenstein_runtime>  (48) 
15.223489046096802

>  <fragmenstein_outcome>  (48) 
too moved

>  <fragmenstein_mode>  (48) 
expansion

>  <fragmenstein_error>  (48) 


$$$$
C28962-P68
     RDKit          3D

 43 45  0  0  0  0  0  0  0  0999 V2000
    4.5587   -9.8617   20.1425 O   0  0  0  0  0  0  0  0  0  0  0  0
    5.2607  -10.4014   18.9932 S   0  0  0  0  0  0  0  0  0  0  0  0
    4.7544  -10.1290   17.6682 O   0  0  0  0  0  0  0  0  0  0  0  0
    7.2357   -9.4695   19.1533 C   0  0  0  0  0  0  0  0  0  0  0  0
    7.5883   -7.8325   18.4283 C   0  0  0  0  0  0  0  0  0  0  0  0
    8.8021   -6.7439   19.1758 C   0  0  0  0  0  0  0  0  0  0  0  0
    9.8115   -5.3894   19.0087 N   0  0  0  0  0  0  0  0  0  0  0  0
   11.2272   -4.6228   18.0468 C   0  0  0  0  0  0  0  0  0  0  0  0
   12.4533   -4.4956   19.0597 C   0  0  0  0  0  0  0  0  0  0  0  0
   12.0101   -5.0318   20.4448 C   0  0  0  0  0  0  0  0  0  0  0  0
   10.4746   -5.3603   20.4785 C   0  0  0  0  0  0  0  0  0  0  0  0
    5.0173  -12.4966   19.3254 N   0  0  0  0  0  0  0  0  0  0  0  0
    3.5533  -13.6006   18.6984 C   0  0  0  0  0  0  0  0  0  0  0  0
    3.2890  -15.3853   18.0333 C   0  0  0  0  0  0  0  0  0  0  0  0
    2.2675  -16.3174   18.1842 N   0  0  0  0  0  0  0  0  0  0  0  0
    2.5629  -17.7882   17.4950 C   0  0  0  0  0  0  0  0  0  0  0  0
    2.0299  -19.1671   17.6981 C   0  0  0  0  0  0  0  0  0  0  0  0
    2.4198  -20.2914   16.9621 C   0  0  0  0  0  0  0  0  0  0  0  0
    3.3073  -20.0976   15.9350 C   0  0  0  0  0  0  0  0  0  0  0  0
    3.8712  -18.8242   15.7250 C   0  0  0  0  0  0  0  0  0  0  0  0
    3.5287  -17.7231   16.5565 C   0  0  0  0  0  0  0  0  0  0  0  0
    4.1769  -16.2018   16.7623 S   0  0  0  0  0  0  0  0  0  0  0  0
    7.3709   -9.3929   20.2365 H   0  0  0  0  0  0  0  0  0  0  0  0
    7.9575  -10.1342   18.6945 H   0  0  0  0  0  0  0  0  0  0  0  0
    6.6369   -7.2912   18.4030 H   0  0  0  0  0  0  0  0  0  0  0  0
    7.9309   -8.0341   17.4080 H   0  0  0  0  0  0  0  0  0  0  0  0
    8.1105   -6.2735   19.8945 H   0  0  0  0  0  0  0  0  0  0  0  0
    9.3292   -7.4733   19.8023 H   0  0  0  0  0  0  0  0  0  0  0  0
   11.0729   -3.6599   17.5456 H   0  0  0  0  0  0  0  0  0  0  0  0
   11.5151   -5.1161   17.0821 H   0  0  0  0  0  0  0  0  0  0  0  0
   13.3423   -5.0046   18.7078 H   0  0  0  0  0  0  0  0  0  0  0  0
   12.7671   -3.4458   19.1464 H   0  0  0  0  0  0  0  0  0  0  0  0
   12.6022   -5.9188   20.6971 H   0  0  0  0  0  0  0  0  0  0  0  0
   12.2433   -4.2930   21.2217 H   0  0  0  0  0  0  0  0  0  0  0  0
   10.3291   -6.2929   21.0364 H   0  0  0  0  0  0  0  0  0  0  0  0
    9.9116   -4.6424   21.0940 H   0  0  0  0  0  0  0  0  0  0  0  0
    4.7962  -12.4837   20.3285 H   0  0  0  0  0  0  0  0  0  0  0  0
    2.8783  -12.9143   18.1818 H   0  0  0  0  0  0  0  0  0  0  0  0
    3.0868  -13.7461   19.6796 H   0  0  0  0  0  0  0  0  0  0  0  0
    1.3062  -19.3849   18.4595 H   0  0  0  0  0  0  0  0  0  0  0  0
    2.0055  -21.2719   17.1717 H   0  0  0  0  0  0  0  0  0  0  0  0
    3.6001  -20.9285   15.2997 H   0  0  0  0  0  0  0  0  0  0  0  0
    4.6205  -18.6926   14.9491 H   0  0  0  0  0  0  0  0  0  0  0  0
  1  2  2  0
  2  3  2  0
  2  4  1  0
  4  5  1  0
  5  6  1  0
  6  7  1  0
  7  8  1  0
  8  9  1  0
  9 10  1  0
 10 11  1  0
  2 12  1  0
 12 13  1  0
 13 14  1  0
 14 15  2  0
 15 16  1  0
 16 17  2  0
 17 18  1  0
 18 19  2  0
 19 20  1  0
 20 21  2  0
 21 22  1  0
 11  7  1  0
 22 14  1  0
 21 16  1  0
  4 23  1  0
  4 24  1  0
  5 25  1  0
  5 26  1  0
  6 27  1  0
  6 28  1  0
  8 29  1  0
  8 30  1  0
  9 31  1  0
  9 32  1  0
 10 33  1  0
 10 34  1  0
 11 35  1  0
 11 36  1  0
 12 37  1  0
 13 38  1  0
 13 39  1  0
 17 40  1  0
 18 41  1  0
 19 42  1  0
 20 43  1  0
M  END
>  <Energy>  (49) 
400.14790518548091

>  <compound_id>  (49) 
28962

>  <target_id>  (49) 
1

>  <reference_id>  (49) 
68

>  <inspiration_ids>  (49) 
[68, 124]

>  <energy_score>  (49) 
367.04950862842213

>  <distance_score>  (49) 
17.08850284570932

>  <path>  (49) 
/opt/xchem-fragalysis-2/maxwin/BulkDock/SCRATCH/511017/C28962-P68/C28962-P68.minimised.mol

>  <scratch_subdir>  (49) 
/opt/xchem-fragalysis-2/maxwin/BulkDock/SCRATCH/511017/C28962-P68

>  <fragmenstein_runtime>  (49) 
36.05414175987244

>  <fragmenstein_outcome>  (49) 
too moved

>  <fragmenstein_mode>  (49) 
expansion

>  <fragmenstein_error>  (49) 


$$$$
C28962-P124
     RDKit          3D

 43 45  0  0  0  0  0  0  0  0999 V2000
   11.6631  -16.5071   15.7541 O   0  0  0  0  0  0  0  0  0  0  0  0
   10.5374  -15.8946   15.0833 S   0  0  0  0  0  0  0  0  0  0  0  0
   10.5517  -15.7333   13.6440 O   0  0  0  0  0  0  0  0  0  0  0  0
   10.4108  -14.1510   15.7854 C   0  0  0  0  0  0  0  0  0  0  0  0
   11.6602  -13.2668   15.4694 C   0  0  0  0  0  0  0  0  0  0  0  0
   12.0049  -12.1174   16.4694 C   0  0  0  0  0  0  0  0  0  0  0  0
   11.2878  -10.8468   16.4684 N   0  0  0  0  0  0  0  0  0  0  0  0
   11.3181  -10.1421   15.1986 C   0  0  0  0  0  0  0  0  0  0  0  0
   10.3263   -9.0103   15.4184 C   0  0  0  0  0  0  0  0  0  0  0  0
    9.2555   -9.6297   16.2943 C   0  0  0  0  0  0  0  0  0  0  0  0
    9.9069  -10.8646   16.9024 C   0  0  0  0  0  0  0  0  0  0  0  0
    9.0263  -16.8865   15.5011 N   0  0  0  0  0  0  0  0  0  0  0  0
    8.9887  -18.4873   15.1483 C   0  0  0  0  0  0  0  0  0  0  0  0
    7.6969  -19.5891   15.5879 C   0  0  0  0  0  0  0  0  0  0  0  0
    6.3866  -19.5717   15.2926 N   0  0  0  0  0  0  0  0  0  0  0  0
    5.6899  -20.8200   15.6078 C   0  0  0  0  0  0  0  0  0  0  0  0
    4.2911  -21.1108   15.4950 C   0  0  0  0  0  0  0  0  0  0  0  0
    3.7507  -22.3485   15.9039 C   0  0  0  0  0  0  0  0  0  0  0  0
    4.5890  -23.3376   16.3940 C   0  0  0  0  0  0  0  0  0  0  0  0
    5.9677  -23.0898   16.5134 C   0  0  0  0  0  0  0  0  0  0  0  0
    6.4968  -21.8175   16.1444 C   0  0  0  0  0  0  0  0  0  0  0  0
    8.1272  -21.1888   16.2578 S   0  0  0  0  0  0  0  0  0  0  0  0
   10.3150  -14.2696   16.8619 H   0  0  0  0  0  0  0  0  0  0  0  0
    9.5352  -13.7035   15.3156 H   0  0  0  0  0  0  0  0  0  0  0  0
   12.5348  -13.9306   15.4600 H   0  0  0  0  0  0  0  0  0  0  0  0
   11.5831  -12.8872   14.4450 H   0  0  0  0  0  0  0  0  0  0  0  0
   11.9716  -12.5315   17.4856 H   0  0  0  0  0  0  0  0  0  0  0  0
   13.0642  -11.8762   16.3053 H   0  0  0  0  0  0  0  0  0  0  0  0
   12.3302   -9.8039   14.9795 H   0  0  0  0  0  0  0  0  0  0  0  0
   10.9691  -10.7646   14.3669 H   0  0  0  0  0  0  0  0  0  0  0  0
    9.8931   -8.6442   14.4820 H   0  0  0  0  0  0  0  0  0  0  0  0
   10.8123   -8.1693   15.9159 H   0  0  0  0  0  0  0  0  0  0  0  0
    8.3982   -9.9173   15.6766 H   0  0  0  0  0  0  0  0  0  0  0  0
    8.8882   -8.9311   17.0508 H   0  0  0  0  0  0  0  0  0  0  0  0
    9.8355  -10.8542   17.9941 H   0  0  0  0  0  0  0  0  0  0  0  0
    9.3842  -11.7426   16.5233 H   0  0  0  0  0  0  0  0  0  0  0  0
    8.2134  -16.4479   15.0404 H   0  0  0  0  0  0  0  0  0  0  0  0
    9.8929  -18.9151   15.5960 H   0  0  0  0  0  0  0  0  0  0  0  0
    9.0303  -18.5586   14.0550 H   0  0  0  0  0  0  0  0  0  0  0  0
    3.6245  -20.3371   15.1182 H   0  0  0  0  0  0  0  0  0  0  0  0
    2.6776  -22.5143   15.8444 H   0  0  0  0  0  0  0  0  0  0  0  0
    4.1714  -24.2890   16.7146 H   0  0  0  0  0  0  0  0  0  0  0  0
    6.6282  -23.8566   16.9078 H   0  0  0  0  0  0  0  0  0  0  0  0
  1  2  2  0
  2  3  2  0
  2  4  1  0
  4  5  1  0
  5  6  1  0
  6  7  1  0
  7  8  1  0
  8  9  1  0
  9 10  1  0
 10 11  1  0
  2 12  1  0
 12 13  1  0
 13 14  1  0
 14 15  2  0
 15 16  1  0
 16 17  2  0
 17 18  1  0
 18 19  2  0
 19 20  1  0
 20 21  2  0
 21 22  1  0
 11  7  1  0
 22 14  1  0
 21 16  1  0
  4 23  1  0
  4 24  1  0
  5 25  1  0
  5 26  1  0
  6 27  1  0
  6 28  1  0
  8 29  1  0
  8 30  1  0
  9 31  1  0
  9 32  1  0
 10 33  1  0
 10 34  1  0
 11 35  1  0
 11 36  1  0
 12 37  1  0
 13 38  1  0
 13 39  1  0
 17 40  1  0
 18 41  1  0
 19 42  1  0
 20 43  1  0
M  END
>  <Energy>  (50) 
7.968988860831411

>  <compound_id>  (50) 
28962

>  <target_id>  (50) 
1

>  <reference_id>  (50) 
124

>  <inspiration_ids>  (50) 
[68, 124]

>  <energy_score>  (50) 
-25.129407696227357

>  <distance_score>  (50) 
17.485743095069882

>  <path>  (50) 
/opt/xchem-fragalysis-2/maxwin/BulkDock/SCRATCH/511017/C28962-P124/C28962-P124.minimised.mol

>  <scratch_subdir>  (50) 
/opt/xchem-fragalysis-2/maxwin/BulkDock/SCRATCH/511017/C28962-P124

>  <fragmenstein_runtime>  (50) 
23.29443335533142

>  <fragmenstein_outcome>  (50) 
too moved

>  <fragmenstein_mode>  (50) 
expansion

>  <fragmenstein_error>  (50) 


$$$$
C28963-P68
     RDKit          3D

 43 45  0  0  0  0  0  0  0  0999 V2000
   10.6397  -17.1890   14.1477 O   0  0  0  0  0  0  0  0  0  0  0  0
   10.0118  -16.5912   15.3089 S   0  0  0  0  0  0  0  0  0  0  0  0
   10.6661  -16.6433   16.5988 O   0  0  0  0  0  0  0  0  0  0  0  0
    9.8868  -14.7993   14.8587 C   0  0  0  0  0  0  0  0  0  0  0  0
   10.9690  -13.8768   15.4751 C   0  0  0  0  0  0  0  0  0  0  0  0
   10.9990  -12.4829   14.7898 C   0  0  0  0  0  0  0  0  0  0  0  0
   11.3600  -11.3867   15.6911 N   0  0  0  0  0  0  0  0  0  0  0  0
   10.3697  -11.2747   16.7658 C   0  0  0  0  0  0  0  0  0  0  0  0
   10.3434   -9.8223   17.1112 C   0  0  0  0  0  0  0  0  0  0  0  0
   10.4723   -9.1550   15.7657 C   0  0  0  0  0  0  0  0  0  0  0  0
   11.3718  -10.0950   14.9844 C   0  0  0  0  0  0  0  0  0  0  0  0
    8.3504  -17.3770   15.4694 N   0  0  0  0  0  0  0  0  0  0  0  0
    8.2349  -18.9815   15.2818 C   0  0  0  0  0  0  0  0  0  0  0  0
    6.8461  -19.9603   15.6403 C   0  0  0  0  0  0  0  0  0  0  0  0
    5.5390  -19.6973   15.7366 N   0  0  0  0  0  0  0  0  0  0  0  0
    4.7172  -20.8631   16.0498 C   0  0  0  0  0  0  0  0  0  0  0  0
    3.3111  -20.9171   16.3127 C   0  0  0  0  0  0  0  0  0  0  0  0
    2.6746  -22.1215   16.6815 C   0  0  0  0  0  0  0  0  0  0  0  0
    0.9858  -22.1251   17.0112 Cl  0  0  0  0  0  0  0  0  0  0  0  0
    3.3975  -23.3023   16.7728 C   0  0  0  0  0  0  0  0  0  0  0  0
    4.7770  -23.2893   16.5029 C   0  0  0  0  0  0  0  0  0  0  0  0
    5.4213  -22.0613   16.1584 C   0  0  0  0  0  0  0  0  0  0  0  0
    7.1095  -21.7231   15.8448 S   0  0  0  0  0  0  0  0  0  0  0  0
   10.0161  -14.7729   13.7744 H   0  0  0  0  0  0  0  0  0  0  0  0
    8.8947  -14.4483   15.0927 H   0  0  0  0  0  0  0  0  0  0  0  0
   11.9576  -14.3417   15.3780 H   0  0  0  0  0  0  0  0  0  0  0  0
   10.7698  -13.8143   16.5493 H   0  0  0  0  0  0  0  0  0  0  0  0
   11.7250  -12.5334   13.9682 H   0  0  0  0  0  0  0  0  0  0  0  0
   10.0214  -12.2837   14.3288 H   0  0  0  0  0  0  0  0  0  0  0  0
   10.6643  -11.8715   17.6331 H   0  0  0  0  0  0  0  0  0  0  0  0
    9.3690  -11.5808   16.4361 H   0  0  0  0  0  0  0  0  0  0  0  0
   11.2055   -9.6346   17.7507 H   0  0  0  0  0  0  0  0  0  0  0  0
    9.4258   -9.5455   17.6380 H   0  0  0  0  0  0  0  0  0  0  0  0
    9.4879   -9.0952   15.2859 H   0  0  0  0  0  0  0  0  0  0  0  0
   10.8788   -8.1436   15.8364 H   0  0  0  0  0  0  0  0  0  0  0  0
   12.3977   -9.7326   14.9880 H   0  0  0  0  0  0  0  0  0  0  0  0
   11.0466  -10.1552   13.9390 H   0  0  0  0  0  0  0  0  0  0  0  0
    7.6640  -16.8900   14.8784 H   0  0  0  0  0  0  0  0  0  0  0  0
    8.4245  -19.1766   14.2193 H   0  0  0  0  0  0  0  0  0  0  0  0
    9.0364  -19.4114   15.8949 H   0  0  0  0  0  0  0  0  0  0  0  0
    2.7425  -19.9921   16.2491 H   0  0  0  0  0  0  0  0  0  0  0  0
    2.9095  -24.2313   17.0543 H   0  0  0  0  0  0  0  0  0  0  0  0
    5.3581  -24.2045   16.5798 H   0  0  0  0  0  0  0  0  0  0  0  0
  1  2  2  0
  2  3  2  0
  2  4  1  0
  4  5  1  0
  5  6  1  0
  6  7  1  0
  7  8  1  0
  8  9  1  0
  9 10  1  0
 10 11  1  0
  2 12  1  0
 12 13  1  0
 13 14  1  0
 14 15  2  0
 15 16  1  0
 16 17  2  0
 17 18  1  0
 18 19  1  0
 18 20  2  0
 20 21  1  0
 21 22  2  0
 22 23  1  0
 11  7  1  0
 23 14  1  0
 22 16  1  0
  4 24  1  0
  4 25  1  0
  5 26  1  0
  5 27  1  0
  6 28  1  0
  6 29  1  0
  8 30  1  0
  8 31  1  0
  9 32  1  0
  9 33  1  0
 10 34  1  0
 10 35  1  0
 11 36  1  0
 11 37  1  0
 12 38  1  0
 13 39  1  0
 13 40  1  0
 17 41  1  0
 20 42  1  0
 21 43  1  0
M  END
>  <Energy>  (51) 
1.5576824003786591

>  <compound_id>  (51) 
28963

>  <target_id>  (51) 
1

>  <reference_id>  (51) 
68

>  <inspiration_ids>  (51) 
[68, 124]

>  <energy_score>  (51) 
1.5445313862974501

>  <distance_score>  (51) 
17.207599522744516

>  <path>  (51) 
/opt/xchem-fragalysis-2/maxwin/BulkDock/SCRATCH/511017/C28963-P68/C28963-P68.minimised.mol

>  <scratch_subdir>  (51) 
/opt/xchem-fragalysis-2/maxwin/BulkDock/SCRATCH/511017/C28963-P68

>  <fragmenstein_runtime>  (51) 
21.486476182937622

>  <fragmenstein_outcome>  (51) 
too moved

>  <fragmenstein_mode>  (51) 
expansion

>  <fragmenstein_error>  (51) 


$$$$
C28963-P124
     RDKit          3D

 43 45  0  0  0  0  0  0  0  0999 V2000
   10.6973  -17.1919   14.1134 O   0  0  0  0  0  0  0  0  0  0  0  0
   10.9159  -17.3865   15.5292 S   0  0  0  0  0  0  0  0  0  0  0  0
   12.0693  -18.1479   15.9677 O   0  0  0  0  0  0  0  0  0  0  0  0
   11.1956  -15.6824   16.3015 C   0  0  0  0  0  0  0  0  0  0  0  0
   10.7741  -14.4924   15.4197 C   0  0  0  0  0  0  0  0  0  0  0  0
   11.0956  -13.0854   15.9574 C   0  0  0  0  0  0  0  0  0  0  0  0
   10.7066  -12.1119   14.9143 N   0  0  0  0  0  0  0  0  0  0  0  0
   10.0259  -10.9199   15.4452 C   0  0  0  0  0  0  0  0  0  0  0  0
   11.1237  -10.0104   15.9392 C   0  0  0  0  0  0  0  0  0  0  0  0
   12.3880  -10.5517   15.2798 C   0  0  0  0  0  0  0  0  0  0  0  0
   11.9024  -11.5533   14.2657 C   0  0  0  0  0  0  0  0  0  0  0  0
    9.4830  -18.3085   16.2040 N   0  0  0  0  0  0  0  0  0  0  0  0
    9.1207  -19.7554   15.4979 C   0  0  0  0  0  0  0  0  0  0  0  0
    7.8126  -20.7845   15.9926 C   0  0  0  0  0  0  0  0  0  0  0  0
    7.8968  -21.9719   16.6222 N   0  0  0  0  0  0  0  0  0  0  0  0
    6.6852  -22.7555   16.5577 C   0  0  0  0  0  0  0  0  0  0  0  0
    6.4645  -24.0952   17.0072 C   0  0  0  0  0  0  0  0  0  0  0  0
    5.1949  -24.7075   16.8946 C   0  0  0  0  0  0  0  0  0  0  0  0
    4.9871  -26.3225   17.4506 Cl  0  0  0  0  0  0  0  0  0  0  0  0
    4.1216  -24.0098   16.3618 C   0  0  0  0  0  0  0  0  0  0  0  0
    4.3187  -22.7053   15.8767 C   0  0  0  0  0  0  0  0  0  0  0  0
    5.6132  -22.1114   15.9473 C   0  0  0  0  0  0  0  0  0  0  0  0
    6.2068  -20.6018   15.2837 S   0  0  0  0  0  0  0  0  0  0  0  0
   10.8549  -15.6836   17.3292 H   0  0  0  0  0  0  0  0  0  0  0  0
   12.2913  -15.6360   16.3822 H   0  0  0  0  0  0  0  0  0  0  0  0
   11.2700  -14.6090   14.4478 H   0  0  0  0  0  0  0  0  0  0  0  0
    9.6973  -14.5666   15.2493 H   0  0  0  0  0  0  0  0  0  0  0  0
   12.1554  -13.0395   16.2325 H   0  0  0  0  0  0  0  0  0  0  0  0
   10.5323  -12.9301   16.8790 H   0  0  0  0  0  0  0  0  0  0  0  0
    9.4747  -10.4345   14.6302 H   0  0  0  0  0  0  0  0  0  0  0  0
    9.2952  -11.1519   16.2257 H   0  0  0  0  0  0  0  0  0  0  0  0
   10.9279   -8.9654   15.6881 H   0  0  0  0  0  0  0  0  0  0  0  0
   11.1619  -10.1070   17.0260 H   0  0  0  0  0  0  0  0  0  0  0  0
   13.0307  -11.0436   16.0177 H   0  0  0  0  0  0  0  0  0  0  0  0
   12.9817   -9.7834   14.8053 H   0  0  0  0  0  0  0  0  0  0  0  0
   11.6141  -11.0554   13.3316 H   0  0  0  0  0  0  0  0  0  0  0  0
   12.6540  -12.3087   14.0123 H   0  0  0  0  0  0  0  0  0  0  0  0
    9.7467  -18.5448   17.1672 H   0  0  0  0  0  0  0  0  0  0  0  0
   10.0136  -20.3811   15.6135 H   0  0  0  0  0  0  0  0  0  0  0  0
    8.9365  -19.5433   14.4385 H   0  0  0  0  0  0  0  0  0  0  0  0
    7.2993  -24.6354   17.4442 H   0  0  0  0  0  0  0  0  0  0  0  0
    3.1318  -24.4562   16.3146 H   0  0  0  0  0  0  0  0  0  0  0  0
    3.4910  -22.1569   15.4331 H   0  0  0  0  0  0  0  0  0  0  0  0
  1  2  2  0
  2  3  2  0
  2  4  1  0
  4  5  1  0
  5  6  1  0
  6  7  1  0
  7  8  1  0
  8  9  1  0
  9 10  1  0
 10 11  1  0
  2 12  1  0
 12 13  1  0
 13 14  1  0
 14 15  2  0
 15 16  1  0
 16 17  2  0
 17 18  1  0
 18 19  1  0
 18 20  2  0
 20 21  1  0
 21 22  2  0
 22 23  1  0
 11  7  1  0
 23 14  1  0
 22 16  1  0
  4 24  1  0
  4 25  1  0
  5 26  1  0
  5 27  1  0
  6 28  1  0
  6 29  1  0
  8 30  1  0
  8 31  1  0
  9 32  1  0
  9 33  1  0
 10 34  1  0
 10 35  1  0
 11 36  1  0
 11 37  1  0
 12 38  1  0
 13 39  1  0
 13 40  1  0
 17 41  1  0
 20 42  1  0
 21 43  1  0
M  END
>  <Energy>  (52) 
3.2024516322133287

>  <compound_id>  (52) 
28963

>  <target_id>  (52) 
1

>  <reference_id>  (52) 
124

>  <inspiration_ids>  (52) 
[68, 124]

>  <energy_score>  (52) 
3.1893006181332346

>  <distance_score>  (52) 
17.423123793290355

>  <path>  (52) 
/opt/xchem-fragalysis-2/maxwin/BulkDock/SCRATCH/511017/C28963-P124/C28963-P124.minimised.mol

>  <scratch_subdir>  (52) 
/opt/xchem-fragalysis-2/maxwin/BulkDock/SCRATCH/511017/C28963-P124

>  <fragmenstein_runtime>  (52) 
20.08902335166931

>  <fragmenstein_outcome>  (52) 
too moved

>  <fragmenstein_mode>  (52) 
expansion

>  <fragmenstein_error>  (52) 


$$$$
C28972-P68
     RDKit          3D

 47 50  0  0  0  0  0  0  0  0999 V2000
    1.4813  -20.8765   18.1402 O   0  0  0  0  0  0  0  0  0  0  0  0
    2.3144  -21.4822   17.5139 C   0  0  0  0  0  0  0  0  0  0  0  0
    2.1840  -23.1339   17.6685 C   0  0  0  0  0  0  0  0  0  0  0  0
    1.0280  -23.5917   18.7213 C   0  0  0  0  0  0  0  0  0  0  0  0
    0.4805  -25.0951   19.0670 C   0  0  0  0  0  0  0  0  0  0  0  0
   -0.7362  -25.5294   18.7127 N   0  0  0  0  0  0  0  0  0  0  0  0
   -1.1237  -26.7275   19.3330 C   0  0  0  0  0  0  0  0  0  0  0  0
   -2.3384  -27.4356   19.1418 C   0  0  0  0  0  0  0  0  0  0  0  0
   -2.5772  -28.6410   19.8145 C   0  0  0  0  0  0  0  0  0  0  0  0
   -1.6336  -29.1348   20.7059 C   0  0  0  0  0  0  0  0  0  0  0  0
   -0.4316  -28.4424   20.9275 C   0  0  0  0  0  0  0  0  0  0  0  0
   -0.1865  -27.2434   20.2178 C   0  0  0  0  0  0  0  0  0  0  0  0
    1.2037  -26.1875   20.2133 S   0  0  0  0  0  0  0  0  0  0  0  0
    3.4124  -20.9847   16.6191 N   0  0  0  0  0  0  0  0  0  0  0  0
    3.7564  -19.5481   16.1388 C   0  0  0  0  0  0  0  0  0  0  0  0
    2.7198  -19.0500   15.1074 C   0  0  0  0  0  0  0  0  0  0  0  0
    3.2657  -17.9374   14.3608 O   0  0  0  0  0  0  0  0  0  0  0  0
    4.6029  -17.7129   14.7811 C   0  0  0  0  0  0  0  0  0  0  0  0
    5.1273  -19.0293   15.4040 C   0  0  0  0  0  0  0  0  0  0  0  0
    6.4612  -18.8241   16.0794 N   0  0  0  0  0  0  0  0  0  0  0  0
    6.9871  -17.4336   16.1668 C   0  0  0  0  0  0  0  0  0  0  0  0
    8.4038  -17.6560   16.6710 C   0  0  0  0  0  0  0  0  0  0  0  0
    8.8179  -18.9827   16.0514 C   0  0  0  0  0  0  0  0  0  0  0  0
    7.5601  -19.5032   15.3701 C   0  0  0  0  0  0  0  0  0  0  0  0
    1.9416  -23.5249   16.6766 H   0  0  0  0  0  0  0  0  0  0  0  0
    3.1590  -23.5263   17.9629 H   0  0  0  0  0  0  0  0  0  0  0  0
    0.1228  -23.1205   18.3234 H   0  0  0  0  0  0  0  0  0  0  0  0
    1.2084  -23.0976   19.6832 H   0  0  0  0  0  0  0  0  0  0  0  0
   -3.0671  -27.0425   18.4408 H   0  0  0  0  0  0  0  0  0  0  0  0
   -3.4892  -29.1951   19.6146 H   0  0  0  0  0  0  0  0  0  0  0  0
   -1.8102  -30.0793   21.2168 H   0  0  0  0  0  0  0  0  0  0  0  0
    0.3134  -28.8357   21.6138 H   0  0  0  0  0  0  0  0  0  0  0  0
    3.8738  -21.7745   16.1893 H   0  0  0  0  0  0  0  0  0  0  0  0
    3.5822  -18.9131   17.0078 H   0  0  0  0  0  0  0  0  0  0  0  0
    2.4563  -19.8335   14.3897 H   0  0  0  0  0  0  0  0  0  0  0  0
    1.8128  -18.6996   15.6045 H   0  0  0  0  0  0  0  0  0  0  0  0
    4.5622  -16.8955   15.5084 H   0  0  0  0  0  0  0  0  0  0  0  0
    5.1929  -17.3969   13.9155 H   0  0  0  0  0  0  0  0  0  0  0  0
    5.2663  -19.7548   14.5888 H   0  0  0  0  0  0  0  0  0  0  0  0
    7.0339  -16.9460   15.1852 H   0  0  0  0  0  0  0  0  0  0  0  0
    6.4200  -16.7983   16.8514 H   0  0  0  0  0  0  0  0  0  0  0  0
    9.0739  -16.8405   16.3824 H   0  0  0  0  0  0  0  0  0  0  0  0
    8.4176  -17.7346   17.7647 H   0  0  0  0  0  0  0  0  0  0  0  0
    9.6330  -18.8557   15.3317 H   0  0  0  0  0  0  0  0  0  0  0  0
    9.1601  -19.6708   16.8327 H   0  0  0  0  0  0  0  0  0  0  0  0
    7.5734  -19.2389   14.3046 H   0  0  0  0  0  0  0  0  0  0  0  0
    7.4848  -20.5919   15.4570 H   0  0  0  0  0  0  0  0  0  0  0  0
  1  2  2  0
  2  3  1  0
  3  4  1  0
  4  5  1  0
  5  6  2  0
  6  7  1  0
  7  8  2  0
  8  9  1  0
  9 10  2  0
 10 11  1  0
 11 12  2  0
 12 13  1  0
  2 14  1  0
 14 15  1  0
 15 16  1  0
 16 17  1  0
 17 18  1  0
 18 19  1  0
 19 20  1  0
 20 21  1  0
 21 22  1  0
 22 23  1  0
 23 24  1  0
 13  5  1  0
 19 15  1  0
 24 20  1  0
 12  7  1  0
  3 25  1  0
  3 26  1  0
  4 27  1  0
  4 28  1  0
  8 29  1  0
  9 30  1  0
 10 31  1  0
 11 32  1  0
 14 33  1  0
 15 34  1  0
 16 35  1  0
 16 36  1  0
 18 37  1  0
 18 38  1  0
 19 39  1  0
 21 40  1  0
 21 41  1  0
 22 42  1  0
 22 43  1  0
 23 44  1  0
 23 45  1  0
 24 46  1  0
 24 47  1  0
M  END
>  <Energy>  (53) 
119.13616404622678

>  <compound_id>  (53) 
28972

>  <target_id>  (53) 
1

>  <reference_id>  (53) 
68

>  <inspiration_ids>  (53) 
[68, 124]

>  <energy_score>  (53) 
-22.385541261103867

>  <distance_score>  (53) 
18.169699570257386

>  <path>  (53) 
/opt/xchem-fragalysis-2/maxwin/BulkDock/SCRATCH/511017/C28972-P68/C28972-P68.minimised.mol

>  <scratch_subdir>  (53) 
/opt/xchem-fragalysis-2/maxwin/BulkDock/SCRATCH/511017/C28972-P68

>  <fragmenstein_runtime>  (53) 
23.25036072731018

>  <fragmenstein_outcome>  (53) 
too moved

>  <fragmenstein_mode>  (53) 
expansion

>  <fragmenstein_error>  (53) 


$$$$
C28972-P124
     RDKit          3D

 47 50  0  0  0  0  0  0  0  0999 V2000
    6.7039  -17.6869   22.3998 O   0  0  0  0  0  0  0  0  0  0  0  0
    6.0246  -17.6862   21.4139 C   0  0  0  0  0  0  0  0  0  0  0  0
    4.5872  -19.0538   21.3315 C   0  0  0  0  0  0  0  0  0  0  0  0
    2.6500  -19.7454   21.2851 C   0  0  0  0  0  0  0  0  0  0  0  0
    1.3763  -20.5511   22.4685 C   0  0  0  0  0  0  0  0  0  0  0  0
    0.6897  -22.1547   22.8219 N   0  0  0  0  0  0  0  0  0  0  0  0
    0.9762  -23.5142   22.3073 C   0  0  0  0  0  0  0  0  0  0  0  0
    1.4317  -25.1352   22.6049 C   0  0  0  0  0  0  0  0  0  0  0  0
    1.3016  -26.1289   21.5825 C   0  0  0  0  0  0  0  0  0  0  0  0
    0.8456  -25.7309   20.3516 C   0  0  0  0  0  0  0  0  0  0  0  0
    0.6307  -24.3430   20.1363 C   0  0  0  0  0  0  0  0  0  0  0  0
    0.5223  -23.0952   21.0865 C   0  0  0  0  0  0  0  0  0  0  0  0
   -0.2136  -22.0171   23.0414 S   0  0  0  0  0  0  0  0  0  0  0  0
    6.0154  -16.7499   20.2587 N   0  0  0  0  0  0  0  0  0  0  0  0
    6.7752  -15.4673   20.0163 C   0  0  0  0  0  0  0  0  0  0  0  0
    6.4576  -14.4024   21.0880 C   0  0  0  0  0  0  0  0  0  0  0  0
    7.6393  -13.6020   21.2886 O   0  0  0  0  0  0  0  0  0  0  0  0
    8.7308  -14.5101   21.0842 C   0  0  0  0  0  0  0  0  0  0  0  0
    8.3410  -15.3467   19.8521 C   0  0  0  0  0  0  0  0  0  0  0  0
    8.7730  -14.6986   18.5612 N   0  0  0  0  0  0  0  0  0  0  0  0
   10.2190  -14.7807   18.3019 C   0  0  0  0  0  0  0  0  0  0  0  0
   10.4332  -13.8375   17.1250 C   0  0  0  0  0  0  0  0  0  0  0  0
    9.2104  -12.9293   17.1145 C   0  0  0  0  0  0  0  0  0  0  0  0
    8.4724  -13.2665   18.3998 C   0  0  0  0  0  0  0  0  0  0  0  0
    4.5591  -18.2326   20.6881 H   0  0  0  0  0  0  0  0  0  0  0  0
    5.1726  -19.7916   20.6380 H   0  0  0  0  0  0  0  0  0  0  0  0
    2.0755  -18.9170   21.3859 H   0  0  0  0  0  0  0  0  0  0  0  0
    2.4678  -20.1918   20.2883 H   0  0  0  0  0  0  0  0  0  0  0  0
    1.8165  -25.3369   23.5802 H   0  0  0  0  0  0  0  0  0  0  0  0
    1.6425  -27.1512   21.6904 H   0  0  0  0  0  0  0  0  0  0  0  0
    0.8234  -26.4194   19.5127 H   0  0  0  0  0  0  0  0  0  0  0  0
    0.6013  -24.0682   19.0740 H   0  0  0  0  0  0  0  0  0  0  0  0
    5.3804  -17.0876   19.5703 H   0  0  0  0  0  0  0  0  0  0  0  0
    6.3264  -15.1252   19.0744 H   0  0  0  0  0  0  0  0  0  0  0  0
    6.1921  -14.8543   22.0501 H   0  0  0  0  0  0  0  0  0  0  0  0
    5.6345  -13.7495   20.7815 H   0  0  0  0  0  0  0  0  0  0  0  0
    9.6653  -13.9515   20.9918 H   0  0  0  0  0  0  0  0  0  0  0  0
    8.8164  -15.1510   21.9706 H   0  0  0  0  0  0  0  0  0  0  0  0
    8.7920  -16.3445   19.8961 H   0  0  0  0  0  0  0  0  0  0  0  0
   10.5245  -15.8019   18.0527 H   0  0  0  0  0  0  0  0  0  0  0  0
   10.8152  -14.4432   19.1570 H   0  0  0  0  0  0  0  0  0  0  0  0
   10.5010  -14.3881   16.1800 H   0  0  0  0  0  0  0  0  0  0  0  0
   11.3570  -13.2622   17.2471 H   0  0  0  0  0  0  0  0  0  0  0  0
    8.5866  -13.1574   16.2416 H   0  0  0  0  0  0  0  0  0  0  0  0
    9.4851  -11.8711   17.0640 H   0  0  0  0  0  0  0  0  0  0  0  0
    8.8733  -12.6514   19.2127 H   0  0  0  0  0  0  0  0  0  0  0  0
    7.4002  -13.0735   18.3020 H   0  0  0  0  0  0  0  0  0  0  0  0
  1  2  2  0
  2  3  1  0
  3  4  1  0
  4  5  1  0
  5  6  2  0
  6  7  1  0
  7  8  2  0
  8  9  1  0
  9 10  2  0
 10 11  1  0
 11 12  2  0
 12 13  1  0
  2 14  1  0
 14 15  1  0
 15 16  1  0
 16 17  1  0
 17 18  1  0
 18 19  1  0
 19 20  1  0
 20 21  1  0
 21 22  1  0
 22 23  1  0
 23 24  1  0
 13  5  1  0
 19 15  1  0
 24 20  1  0
 12  7  1  0
  3 25  1  0
  3 26  1  0
  4 27  1  0
  4 28  1  0
  8 29  1  0
  9 30  1  0
 10 31  1  0
 11 32  1  0
 14 33  1  0
 15 34  1  0
 16 35  1  0
 16 36  1  0
 18 37  1  0
 18 38  1  0
 19 39  1  0
 21 40  1  0
 21 41  1  0
 22 42  1  0
 22 43  1  0
 23 44  1  0
 23 45  1  0
 24 46  1  0
 24 47  1  0
M  END
>  <Energy>  (54) 
893.40424991379109

>  <compound_id>  (54) 
28972

>  <target_id>  (54) 
1

>  <reference_id>  (54) 
124

>  <inspiration_ids>  (54) 
[68, 124]

>  <energy_score>  (54) 
751.8825446064637

>  <distance_score>  (54) 
16.74218647075787

>  <path>  (54) 
/opt/xchem-fragalysis-2/maxwin/BulkDock/SCRATCH/511017/C28972-P124/C28972-P124.minimised.mol

>  <scratch_subdir>  (54) 
/opt/xchem-fragalysis-2/maxwin/BulkDock/SCRATCH/511017/C28972-P124

>  <fragmenstein_runtime>  (54) 
17.72218370437622

>  <fragmenstein_outcome>  (54) 
too moved

>  <fragmenstein_mode>  (54) 
expansion

>  <fragmenstein_error>  (54) 


$$$$
C36369-P95
     RDKit          3D

 49 50  0  0  0  0  0  0  0  0999 V2000
   -9.0203    0.7527    6.2510 C   0  0  0  0  0  0  0  0  0  0  0  0
   -8.9782   -0.7197    5.8412 C   0  0  0  0  0  0  0  0  0  0  0  0
   -8.4485   -0.8188    4.4087 C   0  0  0  0  0  0  0  0  0  0  0  0
   -7.8298   -1.6613    6.9397 S   0  0  0  0  0  0  0  0  0  0  0  0
   -9.0107   -2.5328    8.2106 C   0  0  0  0  0  0  0  0  0  0  0  0
   -9.7254   -1.3248    8.8308 C   0  0  0  0  0  0  0  0  0  0  0  0
   -9.9061   -3.5608    7.4708 C   0  0  0  0  0  0  0  0  0  0  0  0
  -10.9759   -3.1106    7.1032 O   0  0  0  0  0  0  0  0  0  0  0  0
   -9.2546   -4.9632    7.2147 N   0  0  0  0  0  0  0  0  0  0  0  0
   -8.4820   -4.9069    6.0795 C   0  0  0  0  0  0  0  0  0  0  0  0
   -9.4440   -4.3419    5.0322 C   0  0  0  0  0  0  0  0  0  0  0  0
  -10.5501   -5.3666    5.2726 C   0  0  0  0  0  0  0  0  0  0  0  0
   -9.9781   -6.5466    6.3382 C   0  0  0  0  0  0  0  0  0  0  0  0
  -10.7270   -8.5173    6.5654 C   0  0  0  0  0  0  0  0  0  0  0  0
  -11.0557  -10.3624    6.7422 N   0  0  0  0  0  0  0  0  0  0  0  0
  -10.3326  -10.4013    5.5847 C   0  0  0  0  0  0  0  0  0  0  0  0
  -12.4649  -10.6086    6.9787 C   0  0  0  0  0  0  0  0  0  0  0  0
  -13.3624  -10.8135    6.2034 O   0  0  0  0  0  0  0  0  0  0  0  0
  -12.8964  -10.7580    8.4030 C   0  0  0  0  0  0  0  0  0  0  0  0
  -14.2751  -10.8283    8.8272 C   0  0  0  0  0  0  0  0  0  0  0  0
  -14.4072  -11.9905    9.5644 C   0  0  0  0  0  0  0  0  0  0  0  0
  -13.1520  -12.4918    9.6802 N   0  0  0  0  0  0  0  0  0  0  0  0
  -12.2106  -11.7221    9.0917 N   0  0  0  0  0  0  0  0  0  0  0  0
   -9.4272    0.8974    7.2542 H   0  0  0  0  0  0  0  0  0  0  0  0
   -9.6616    1.3175    5.5645 H   0  0  0  0  0  0  0  0  0  0  0  0
   -8.0254    1.2118    6.2199 H   0  0  0  0  0  0  0  0  0  0  0  0
   -9.9839   -1.1426    5.8764 H   0  0  0  0  0  0  0  0  0  0  0  0
   -7.4634   -0.3487    4.3053 H   0  0  0  0  0  0  0  0  0  0  0  0
   -8.3629   -1.8552    4.0711 H   0  0  0  0  0  0  0  0  0  0  0  0
   -9.1285   -0.3082    3.7174 H   0  0  0  0  0  0  0  0  0  0  0  0
   -8.3310   -3.0753    8.8337 H   0  0  0  0  0  0  0  0  0  0  0  0
  -10.5362   -0.9446    8.2007 H   0  0  0  0  0  0  0  0  0  0  0  0
   -9.0412   -0.4958    9.0481 H   0  0  0  0  0  0  0  0  0  0  0  0
  -10.1866   -1.5550    9.7937 H   0  0  0  0  0  0  0  0  0  0  0  0
   -7.6493   -5.6098    6.1163 H   0  0  0  0  0  0  0  0  0  0  0  0
   -7.8000   -4.0631    6.2005 H   0  0  0  0  0  0  0  0  0  0  0  0
   -9.0178   -4.1758    4.0401 H   0  0  0  0  0  0  0  0  0  0  0  0
   -9.8186   -3.3333    5.2004 H   0  0  0  0  0  0  0  0  0  0  0  0
  -11.0415   -5.8153    4.4135 H   0  0  0  0  0  0  0  0  0  0  0  0
  -11.2514   -4.8126    5.8343 H   0  0  0  0  0  0  0  0  0  0  0  0
   -9.9039   -6.8747    5.3313 H   0  0  0  0  0  0  0  0  0  0  0  0
   -9.8738   -8.8450    7.1774 H   0  0  0  0  0  0  0  0  0  0  0  0
  -11.6982   -8.4570    7.0697 H   0  0  0  0  0  0  0  0  0  0  0  0
  -10.9358  -10.9861    4.8685 H   0  0  0  0  0  0  0  0  0  0  0  0
   -9.6602  -11.2248    5.8334 H   0  0  0  0  0  0  0  0  0  0  0  0
   -9.9402   -9.5570    5.0862 H   0  0  0  0  0  0  0  0  0  0  0  0
  -15.0989  -10.2766    8.3946 H   0  0  0  0  0  0  0  0  0  0  0  0
  -15.2733  -12.5011    9.9581 H   0  0  0  0  0  0  0  0  0  0  0  0
  -12.8524  -13.3282   10.1775 H   0  0  0  0  0  0  0  0  0  0  0  0
  1  2  1  0
  2  3  1  0
  2  4  1  0
  4  5  1  0
  5  6  1  0
  5  7  1  0
  7  8  2  0
  7  9  1  0
  9 10  1  0
 10 11  1  0
 11 12  1  0
 12 13  1  0
 13 14  1  0
 14 15  1  0
 15 16  1  0
 15 17  1  0
 17 18  2  0
 17 19  1  0
 19 20  1  0
 20 21  2  0
 21 22  1  0
 22 23  1  0
 13  9  1  0
 23 19  2  0
  1 24  1  0
  1 25  1  0
  1 26  1  0
  2 27  1  0
  3 28  1  0
  3 29  1  0
  3 30  1  0
  5 31  1  0
  6 32  1  0
  6 33  1  0
  6 34  1  0
 10 35  1  0
 10 36  1  0
 11 37  1  0
 11 38  1  0
 12 39  1  0
 12 40  1  0
 13 41  1  0
 14 42  1  0
 14 43  1  0
 16 44  1  0
 16 45  1  0
 16 46  1  0
 20 47  1  0
 21 48  1  0
 22 49  1  0
M  END
>  <Energy>  (55) 
673.10026037327236

>  <compound_id>  (55) 
36369

>  <target_id>  (55) 
1

>  <reference_id>  (55) 
95

>  <inspiration_ids>  (55) 
[95, 96]

>  <energy_score>  (55) 
525.2817676437533

>  <distance_score>  (55) 
14.55086057716031

>  <path>  (55) 
/opt/xchem-fragalysis-2/maxwin/BulkDock/SCRATCH/511017/C36369-P95/C36369-P95.minimised.mol

>  <scratch_subdir>  (55) 
/opt/xchem-fragalysis-2/maxwin/BulkDock/SCRATCH/511017/C36369-P95

>  <fragmenstein_runtime>  (55) 
30.687113761901855

>  <fragmenstein_outcome>  (55) 
too moved

>  <fragmenstein_mode>  (55) 
expansion

>  <fragmenstein_error>  (55) 


$$$$
C36369-P96
     RDKit          3D

 49 50  0  0  0  0  0  0  0  0999 V2000
  -12.6005  -10.8170    3.8259 C   0  0  0  0  0  0  0  0  0  0  0  0
  -11.9488  -11.8808    4.6870 C   0  0  0  0  0  0  0  0  0  0  0  0
  -12.7769  -12.1825    5.9321 C   0  0  0  0  0  0  0  0  0  0  0  0
  -10.2298  -11.4591    5.1810 S   0  0  0  0  0  0  0  0  0  0  0  0
   -9.3173  -12.6869    4.1538 C   0  0  0  0  0  0  0  0  0  0  0  0
   -8.8419  -11.8455    2.9494 C   0  0  0  0  0  0  0  0  0  0  0  0
   -8.0720  -13.3564    4.8640 C   0  0  0  0  0  0  0  0  0  0  0  0
   -7.3099  -12.6639    5.4958 O   0  0  0  0  0  0  0  0  0  0  0  0
   -8.0051  -14.7873    4.5295 N   0  0  0  0  0  0  0  0  0  0  0  0
   -7.2980  -14.9775    3.2173 C   0  0  0  0  0  0  0  0  0  0  0  0
   -5.8454  -14.6077    3.3829 C   0  0  0  0  0  0  0  0  0  0  0  0
   -5.5915  -15.2411    4.7169 C   0  0  0  0  0  0  0  0  0  0  0  0
   -6.9472  -15.9428    4.9947 C   0  0  0  0  0  0  0  0  0  0  0  0
   -6.9329  -16.7935    6.4954 C   0  0  0  0  0  0  0  0  0  0  0  0
   -6.3819  -18.4274    6.6404 N   0  0  0  0  0  0  0  0  0  0  0  0
   -5.4196  -17.9631    5.6812 C   0  0  0  0  0  0  0  0  0  0  0  0
   -6.2215  -18.7897    8.0388 C   0  0  0  0  0  0  0  0  0  0  0  0
   -5.2621  -18.7027    8.7590 O   0  0  0  0  0  0  0  0  0  0  0  0
   -7.3805  -19.5051    8.7459 C   0  0  0  0  0  0  0  0  0  0  0  0
   -7.2714  -20.1119   10.0730 C   0  0  0  0  0  0  0  0  0  0  0  0
   -8.4052  -20.8501   10.2876 C   0  0  0  0  0  0  0  0  0  0  0  0
   -9.1099  -20.7257    9.1342 N   0  0  0  0  0  0  0  0  0  0  0  0
   -8.5237  -19.9484    8.1857 N   0  0  0  0  0  0  0  0  0  0  0  0
  -12.5504   -9.8288    4.2852 H   0  0  0  0  0  0  0  0  0  0  0  0
  -13.6581  -11.0486    3.6562 H   0  0  0  0  0  0  0  0  0  0  0  0
  -12.1270  -10.7827    2.8412 H   0  0  0  0  0  0  0  0  0  0  0  0
  -11.9361  -12.8050    4.1000 H   0  0  0  0  0  0  0  0  0  0  0  0
  -12.8405  -11.3248    6.6026 H   0  0  0  0  0  0  0  0  0  0  0  0
  -13.8006  -12.4583    5.6547 H   0  0  0  0  0  0  0  0  0  0  0  0
  -12.3593  -13.0271    6.4906 H   0  0  0  0  0  0  0  0  0  0  0  0
   -9.9903  -13.4813    3.8193 H   0  0  0  0  0  0  0  0  0  0  0  0
   -7.9569  -11.2537    3.1934 H   0  0  0  0  0  0  0  0  0  0  0  0
   -9.6216  -11.1884    2.5512 H   0  0  0  0  0  0  0  0  0  0  0  0
   -8.5557  -12.4896    2.1144 H   0  0  0  0  0  0  0  0  0  0  0  0
   -7.4901  -15.9523    2.7420 H   0  0  0  0  0  0  0  0  0  0  0  0
   -7.7357  -14.2876    2.4942 H   0  0  0  0  0  0  0  0  0  0  0  0
   -5.6771  -13.5263    3.4123 H   0  0  0  0  0  0  0  0  0  0  0  0
   -5.2328  -15.0307    2.5812 H   0  0  0  0  0  0  0  0  0  0  0  0
   -4.7158  -15.8816    4.6258 H   0  0  0  0  0  0  0  0  0  0  0  0
   -5.3756  -14.4901    5.4846 H   0  0  0  0  0  0  0  0  0  0  0  0
   -7.1991  -16.7945    4.3460 H   0  0  0  0  0  0  0  0  0  0  0  0
   -6.3963  -16.2058    7.2537 H   0  0  0  0  0  0  0  0  0  0  0  0
   -7.9769  -16.8698    6.8238 H   0  0  0  0  0  0  0  0  0  0  0  0
   -5.7468  -17.9562    4.6424 H   0  0  0  0  0  0  0  0  0  0  0  0
   -4.7134  -18.8101    5.6413 H   0  0  0  0  0  0  0  0  0  0  0  0
   -4.7417  -17.1988    6.0765 H   0  0  0  0  0  0  0  0  0  0  0  0
   -6.4175  -20.0743   10.7308 H   0  0  0  0  0  0  0  0  0  0  0  0
   -8.7388  -21.4770   11.0996 H   0  0  0  0  0  0  0  0  0  0  0  0
  -10.0040  -21.1463    8.9068 H   0  0  0  0  0  0  0  0  0  0  0  0
  1  2  1  0
  2  3  1  0
  2  4  1  0
  4  5  1  0
  5  6  1  0
  5  7  1  0
  7  8  2  0
  7  9  1  0
  9 10  1  0
 10 11  1  0
 11 12  1  0
 12 13  1  0
 13 14  1  0
 14 15  1  0
 15 16  1  0
 15 17  1  0
 17 18  2  0
 17 19  1  0
 19 20  1  0
 20 21  2  0
 21 22  1  0
 22 23  1  0
 13  9  1  0
 23 19  2  0
  1 24  1  0
  1 25  1  0
  1 26  1  0
  2 27  1  0
  3 28  1  0
  3 29  1  0
  3 30  1  0
  5 31  1  0
  6 32  1  0
  6 33  1  0
  6 34  1  0
 10 35  1  0
 10 36  1  0
 11 37  1  0
 11 38  1  0
 12 39  1  0
 12 40  1  0
 13 41  1  0
 14 42  1  0
 14 43  1  0
 16 44  1  0
 16 45  1  0
 16 46  1  0
 20 47  1  0
 21 48  1  0
 22 49  1  0
M  END
>  <Energy>  (56) 
283.2362433645738

>  <compound_id>  (56) 
36369

>  <target_id>  (56) 
1

>  <reference_id>  (56) 
96

>  <inspiration_ids>  (56) 
[95, 96]

>  <energy_score>  (56) 
135.41775063504633

>  <distance_score>  (56) 
15.84446734927685

>  <path>  (56) 
/opt/xchem-fragalysis-2/maxwin/BulkDock/SCRATCH/511017/C36369-P96/C36369-P96.minimised.mol

>  <scratch_subdir>  (56) 
/opt/xchem-fragalysis-2/maxwin/BulkDock/SCRATCH/511017/C36369-P96

>  <fragmenstein_runtime>  (56) 
36.57300639152527

>  <fragmenstein_outcome>  (56) 
too moved

>  <fragmenstein_mode>  (56) 
expansion

>  <fragmenstein_error>  (56) 


$$$$
C36370-P95
     RDKit          3D

 46 47  0  0  0  0  0  0  0  0999 V2000
   -7.8284   -2.2936    6.5334 C   0  0  0  0  0  0  0  0  0  0  0  0
   -8.9991   -3.1838    6.9843 C   0  0  0  0  0  0  0  0  0  0  0  0
  -10.1367   -2.2264    7.3499 C   0  0  0  0  0  0  0  0  0  0  0  0
   -8.4647   -4.3042    8.4703 S   0  0  0  0  0  0  0  0  0  0  0  0
   -7.8993   -6.2494    7.8208 C   0  0  0  0  0  0  0  0  0  0  0  0
   -7.2292   -5.3888    6.6199 C   0  0  0  0  0  0  0  0  0  0  0  0
   -7.3865   -7.8449    9.1804 C   0  0  0  0  0  0  0  0  0  0  0  0
   -6.5380   -7.4596    9.9627 O   0  0  0  0  0  0  0  0  0  0  0  0
   -8.0636   -9.5733    9.5375 N   0  0  0  0  0  0  0  0  0  0  0  0
   -9.2064   -9.5632   10.3862 C   0  0  0  0  0  0  0  0  0  0  0  0
   -9.8263  -10.9593   10.3801 C   0  0  0  0  0  0  0  0  0  0  0  0
   -8.6280  -11.8315   10.2612 C   0  0  0  0  0  0  0  0  0  0  0  0
   -7.5634  -10.9675   10.8927 C   0  0  0  0  0  0  0  0  0  0  0  0
   -8.1374  -11.7634   12.7583 C   0  0  0  0  0  0  0  0  0  0  0  0
   -8.3785  -13.6370   13.2454 N   0  0  0  0  0  0  0  0  0  0  0  0
   -7.7272  -14.6697   14.7096 C   0  0  0  0  0  0  0  0  0  0  0  0
   -7.0990  -14.2736   15.6962 O   0  0  0  0  0  0  0  0  0  0  0  0
   -7.7812  -16.4396   14.7494 C   0  0  0  0  0  0  0  0  0  0  0  0
   -8.0909  -17.5926   13.9174 C   0  0  0  0  0  0  0  0  0  0  0  0
   -7.8946  -18.7191   14.6958 C   0  0  0  0  0  0  0  0  0  0  0  0
   -7.4336  -18.2714   15.8873 N   0  0  0  0  0  0  0  0  0  0  0  0
   -7.2820  -16.9485   15.9250 N   0  0  0  0  0  0  0  0  0  0  0  0
   -7.4171   -1.7226    7.3737 H   0  0  0  0  0  0  0  0  0  0  0  0
   -7.0116   -2.8407    6.0621 H   0  0  0  0  0  0  0  0  0  0  0  0
   -8.1635   -1.5696    5.7810 H   0  0  0  0  0  0  0  0  0  0  0  0
   -9.4036   -3.7919    6.1703 H   0  0  0  0  0  0  0  0  0  0  0  0
  -10.2786   -1.4719    6.5664 H   0  0  0  0  0  0  0  0  0  0  0  0
   -9.9425   -1.6890    8.2835 H   0  0  0  0  0  0  0  0  0  0  0  0
  -11.0897   -2.7575    7.4021 H   0  0  0  0  0  0  0  0  0  0  0  0
   -9.0179   -6.2758    7.6005 H   0  0  0  0  0  0  0  0  0  0  0  0
   -7.9564   -4.9091    5.9927 H   0  0  0  0  0  0  0  0  0  0  0  0
   -6.7364   -6.0321    5.9345 H   0  0  0  0  0  0  0  0  0  0  0  0
   -6.5079   -4.6222    6.9157 H   0  0  0  0  0  0  0  0  0  0  0  0
   -9.9582   -9.1469    9.7638 H   0  0  0  0  0  0  0  0  0  0  0  0
   -9.0349   -9.2011   11.3875 H   0  0  0  0  0  0  0  0  0  0  0  0
  -10.4948  -11.1255    9.5256 H   0  0  0  0  0  0  0  0  0  0  0  0
  -10.4178  -11.1260   11.2848 H   0  0  0  0  0  0  0  0  0  0  0  0
   -8.7922  -12.8136   10.6994 H   0  0  0  0  0  0  0  0  0  0  0  0
   -8.3795  -12.0202    9.2084 H   0  0  0  0  0  0  0  0  0  0  0  0
   -7.2905  -10.1062   11.5174 H   0  0  0  0  0  0  0  0  0  0  0  0
   -9.0066  -11.2270   13.1376 H   0  0  0  0  0  0  0  0  0  0  0  0
   -7.1970  -11.5346   13.2098 H   0  0  0  0  0  0  0  0  0  0  0  0
   -8.9319  -14.2099   12.6337 H   0  0  0  0  0  0  0  0  0  0  0  0
   -8.4841  -17.6187   12.9146 H   0  0  0  0  0  0  0  0  0  0  0  0
   -8.0445  -19.7707   14.4986 H   0  0  0  0  0  0  0  0  0  0  0  0
   -7.1744  -18.8072   16.7094 H   0  0  0  0  0  0  0  0  0  0  0  0
  1  2  1  0
  2  3  1  0
  2  4  1  0
  4  5  1  0
  5  6  1  0
  5  7  1  0
  7  8  2  0
  7  9  1  0
  9 10  1  0
 10 11  1  0
 11 12  1  0
 12 13  1  0
 13 14  1  0
 14 15  1  0
 15 16  1  0
 16 17  2  0
 16 18  1  0
 18 19  1  0
 19 20  2  0
 20 21  1  0
 21 22  1  0
 13  9  1  0
 22 18  2  0
  1 23  1  0
  1 24  1  0
  1 25  1  0
  2 26  1  0
  3 27  1  0
  3 28  1  0
  3 29  1  0
  5 30  1  0
  6 31  1  0
  6 32  1  0
  6 33  1  0
 10 34  1  0
 10 35  1  0
 11 36  1  0
 11 37  1  0
 12 38  1  0
 12 39  1  0
 13 40  1  0
 14 41  1  0
 14 42  1  0
 15 43  1  0
 19 44  1  0
 20 45  1  0
 21 46  1  0
M  END
>  <Energy>  (57) 
833.08122864468532

>  <compound_id>  (57) 
36370

>  <target_id>  (57) 
1

>  <reference_id>  (57) 
95

>  <inspiration_ids>  (57) 
[95, 96]

>  <energy_score>  (57) 
706.3671880971738

>  <distance_score>  (57) 
11.57067576711037

>  <path>  (57) 
/opt/xchem-fragalysis-2/maxwin/BulkDock/SCRATCH/511017/C36370-P95/C36370-P95.minimised.mol

>  <scratch_subdir>  (57) 
/opt/xchem-fragalysis-2/maxwin/BulkDock/SCRATCH/511017/C36370-P95

>  <fragmenstein_runtime>  (57) 
24.512221813201904

>  <fragmenstein_outcome>  (57) 
too moved

>  <fragmenstein_mode>  (57) 
expansion

>  <fragmenstein_error>  (57) 


$$$$
C36370-P96
     RDKit          3D

 46 47  0  0  0  0  0  0  0  0999 V2000
   -9.5065   -2.0692    6.5925 C   0  0  0  0  0  0  0  0  0  0  0  0
  -10.1322   -1.4833    7.9117 C   0  0  0  0  0  0  0  0  0  0  0  0
  -11.3557   -0.6328    7.2493 C   0  0  0  0  0  0  0  0  0  0  0  0
   -9.0838   -1.5230    9.9983 S   0  0  0  0  0  0  0  0  0  0  0  0
   -9.7957   -3.3364   11.5696 C   0  0  0  0  0  0  0  0  0  0  0  0
   -8.3214   -3.5034   11.8281 C   0  0  0  0  0  0  0  0  0  0  0  0
  -11.1420   -4.6790   12.2841 C   0  0  0  0  0  0  0  0  0  0  0  0
  -11.6212   -4.2639   13.3227 O   0  0  0  0  0  0  0  0  0  0  0  0
  -11.3754   -5.9517   11.7182 N   0  0  0  0  0  0  0  0  0  0  0  0
  -12.5707   -5.8942   10.7687 C   0  0  0  0  0  0  0  0  0  0  0  0
  -13.9021   -5.9411   11.5145 C   0  0  0  0  0  0  0  0  0  0  0  0
  -13.7237   -7.1216   12.3792 C   0  0  0  0  0  0  0  0  0  0  0  0
  -12.1949   -7.2592   12.2744 C   0  0  0  0  0  0  0  0  0  0  0  0
  -11.3964   -9.0487   12.5443 C   0  0  0  0  0  0  0  0  0  0  0  0
  -11.6147  -10.5192   12.3175 N   0  0  0  0  0  0  0  0  0  0  0  0
  -10.7107  -11.5514   11.9138 C   0  0  0  0  0  0  0  0  0  0  0  0
   -9.5657  -11.4975   11.5724 O   0  0  0  0  0  0  0  0  0  0  0  0
  -11.3883  -12.8857   12.0764 C   0  0  0  0  0  0  0  0  0  0  0  0
  -10.8186  -14.1858   11.9295 C   0  0  0  0  0  0  0  0  0  0  0  0
  -11.7908  -15.0701   12.3282 C   0  0  0  0  0  0  0  0  0  0  0  0
  -12.8339  -14.3030   12.7597 N   0  0  0  0  0  0  0  0  0  0  0  0
  -12.6351  -12.9844   12.5961 N   0  0  0  0  0  0  0  0  0  0  0  0
   -8.4269   -1.9292    6.4839 H   0  0  0  0  0  0  0  0  0  0  0  0
   -9.7825   -3.1085    6.4306 H   0  0  0  0  0  0  0  0  0  0  0  0
   -9.8914   -1.5716    5.6927 H   0  0  0  0  0  0  0  0  0  0  0  0
  -10.9431   -1.9981    8.3395 H   0  0  0  0  0  0  0  0  0  0  0  0
  -11.9357    0.0036    7.9173 H   0  0  0  0  0  0  0  0  0  0  0  0
  -12.0840   -1.3435    6.8242 H   0  0  0  0  0  0  0  0  0  0  0  0
  -11.0419   -0.0341    6.3861 H   0  0  0  0  0  0  0  0  0  0  0  0
  -10.0773   -2.7115   12.3960 H   0  0  0  0  0  0  0  0  0  0  0  0
   -7.6660   -3.4525   12.7021 H   0  0  0  0  0  0  0  0  0  0  0  0
   -8.1289   -2.4465   11.8060 H   0  0  0  0  0  0  0  0  0  0  0  0
   -7.8450   -4.3235   11.3362 H   0  0  0  0  0  0  0  0  0  0  0  0
  -12.6810   -4.8829   10.3838 H   0  0  0  0  0  0  0  0  0  0  0  0
  -12.4907   -6.4825    9.8658 H   0  0  0  0  0  0  0  0  0  0  0  0
  -14.0383   -5.0399   12.1254 H   0  0  0  0  0  0  0  0  0  0  0  0
  -14.7808   -6.0255   10.8762 H   0  0  0  0  0  0  0  0  0  0  0  0
  -14.2989   -7.9796   12.0219 H   0  0  0  0  0  0  0  0  0  0  0  0
  -14.0620   -6.9291   13.4043 H   0  0  0  0  0  0  0  0  0  0  0  0
  -12.0076   -6.8354   13.2662 H   0  0  0  0  0  0  0  0  0  0  0  0
  -12.1742   -9.2725   13.2404 H   0  0  0  0  0  0  0  0  0  0  0  0
  -10.3173   -8.9911   12.5569 H   0  0  0  0  0  0  0  0  0  0  0  0
  -12.5431  -10.9276   12.4598 H   0  0  0  0  0  0  0  0  0  0  0  0
   -9.8249  -14.4177   11.5719 H   0  0  0  0  0  0  0  0  0  0  0  0
  -11.8209  -16.1489   12.3724 H   0  0  0  0  0  0  0  0  0  0  0  0
  -13.7064  -14.6048   13.1841 H   0  0  0  0  0  0  0  0  0  0  0  0
  1  2  1  0
  2  3  1  0
  2  4  1  0
  4  5  1  0
  5  6  1  0
  5  7  1  0
  7  8  2  0
  7  9  1  0
  9 10  1  0
 10 11  1  0
 11 12  1  0
 12 13  1  0
 13 14  1  0
 14 15  1  0
 15 16  1  0
 16 17  2  0
 16 18  1  0
 18 19  1  0
 19 20  2  0
 20 21  1  0
 21 22  1  0
 13  9  1  0
 22 18  2  0
  1 23  1  0
  1 24  1  0
  1 25  1  0
  2 26  1  0
  3 27  1  0
  3 28  1  0
  3 29  1  0
  5 30  1  0
  6 31  1  0
  6 32  1  0
  6 33  1  0
 10 34  1  0
 10 35  1  0
 11 36  1  0
 11 37  1  0
 12 38  1  0
 12 39  1  0
 13 40  1  0
 14 41  1  0
 14 42  1  0
 15 43  1  0
 19 44  1  0
 20 45  1  0
 21 46  1  0
M  END
>  <Energy>  (58) 
628.02586408379614

>  <compound_id>  (58) 
36370

>  <target_id>  (58) 
1

>  <reference_id>  (58) 
96

>  <inspiration_ids>  (58) 
[95, 96]

>  <energy_score>  (58) 
501.3118235362733

>  <distance_score>  (58) 
13.35063447547063

>  <path>  (58) 
/opt/xchem-fragalysis-2/maxwin/BulkDock/SCRATCH/511017/C36370-P96/C36370-P96.minimised.mol

>  <scratch_subdir>  (58) 
/opt/xchem-fragalysis-2/maxwin/BulkDock/SCRATCH/511017/C36370-P96

>  <fragmenstein_runtime>  (58) 
22.841033220291138

>  <fragmenstein_outcome>  (58) 
too moved

>  <fragmenstein_mode>  (58) 
expansion

>  <fragmenstein_error>  (58) 


$$$$
C36371-P95
     RDKit          3D

 46 47  0  0  0  0  0  0  0  0999 V2000
   -9.3057   -1.9815    4.4245 C   0  0  0  0  0  0  0  0  0  0  0  0
   -9.5243   -1.7569    5.9162 C   0  0  0  0  0  0  0  0  0  0  0  0
  -10.4580   -0.5640    6.1334 C   0  0  0  0  0  0  0  0  0  0  0  0
  -10.2698   -3.1929    6.7941 S   0  0  0  0  0  0  0  0  0  0  0  0
   -9.1218   -4.5512    6.4885 C   0  0  0  0  0  0  0  0  0  0  0  0
   -7.7733   -4.2733    7.1060 C   0  0  0  0  0  0  0  0  0  0  0  0
   -9.5900   -6.1428    6.5612 C   0  0  0  0  0  0  0  0  0  0  0  0
  -10.1114   -6.6268    5.5799 O   0  0  0  0  0  0  0  0  0  0  0  0
   -9.1555   -6.8268    7.9429 N   0  0  0  0  0  0  0  0  0  0  0  0
   -7.5760   -7.5913    8.4278 C   0  0  0  0  0  0  0  0  0  0  0  0
   -7.5994   -8.3505    9.7345 C   0  0  0  0  0  0  0  0  0  0  0  0
   -8.9480   -8.8587   10.6232 C   0  0  0  0  0  0  0  0  0  0  0  0
   -9.0748   -9.9007   12.3866 C   0  0  0  0  0  0  0  0  0  0  0  0
   -9.1095  -11.5921   13.2656 N   0  0  0  0  0  0  0  0  0  0  0  0
   -8.0233  -12.9072   13.2329 C   0  0  0  0  0  0  0  0  0  0  0  0
   -7.0675  -12.9548   12.5261 O   0  0  0  0  0  0  0  0  0  0  0  0
   -8.0463  -14.4615   14.4357 C   0  0  0  0  0  0  0  0  0  0  0  0
   -7.1193  -14.8747   15.8923 C   0  0  0  0  0  0  0  0  0  0  0  0
   -7.5260  -16.1460   16.3102 C   0  0  0  0  0  0  0  0  0  0  0  0
   -7.8013  -16.6357   15.1083 N   0  0  0  0  0  0  0  0  0  0  0  0
   -7.6705  -15.7894   14.1664 N   0  0  0  0  0  0  0  0  0  0  0  0
   -9.4185   -8.6302    8.6121 C   0  0  0  0  0  0  0  0  0  0  0  0
   -8.9788   -1.0527    3.9430 H   0  0  0  0  0  0  0  0  0  0  0  0
  -10.2227   -2.3029    3.9252 H   0  0  0  0  0  0  0  0  0  0  0  0
   -8.5233   -2.7205    4.2306 H   0  0  0  0  0  0  0  0  0  0  0  0
   -8.5690   -1.5147    6.3910 H   0  0  0  0  0  0  0  0  0  0  0  0
  -10.0364    0.3389    5.6772 H   0  0  0  0  0  0  0  0  0  0  0  0
  -11.4437   -0.7298    5.6836 H   0  0  0  0  0  0  0  0  0  0  0  0
  -10.5956   -0.3509    7.1997 H   0  0  0  0  0  0  0  0  0  0  0  0
   -8.9787   -4.3965    5.4244 H   0  0  0  0  0  0  0  0  0  0  0  0
   -7.0230   -4.8968    6.6189 H   0  0  0  0  0  0  0  0  0  0  0  0
   -7.4271   -3.2441    6.9866 H   0  0  0  0  0  0  0  0  0  0  0  0
   -7.7933   -4.5072    8.1695 H   0  0  0  0  0  0  0  0  0  0  0  0
   -6.9471   -8.0860    7.6737 H   0  0  0  0  0  0  0  0  0  0  0  0
   -7.0674   -6.7851    9.0283 H   0  0  0  0  0  0  0  0  0  0  0  0
   -6.6393   -8.2025   10.2544 H   0  0  0  0  0  0  0  0  0  0  0  0
   -7.6510   -8.9999    8.8872 H   0  0  0  0  0  0  0  0  0  0  0  0
  -10.0062   -9.2410   10.5354 H   0  0  0  0  0  0  0  0  0  0  0  0
   -8.4849   -9.3315   13.1196 H   0  0  0  0  0  0  0  0  0  0  0  0
  -10.1100   -9.6976   12.6438 H   0  0  0  0  0  0  0  0  0  0  0  0
   -9.7761  -11.7458   13.9929 H   0  0  0  0  0  0  0  0  0  0  0  0
   -6.8622  -14.0867   16.5551 H   0  0  0  0  0  0  0  0  0  0  0  0
   -7.7634  -16.7229   17.1876 H   0  0  0  0  0  0  0  0  0  0  0  0
   -8.2000  -17.5322   14.8339 H   0  0  0  0  0  0  0  0  0  0  0  0
   -9.3925   -9.3398    7.7987 H   0  0  0  0  0  0  0  0  0  0  0  0
  -10.4634   -9.1517    8.7042 H   0  0  0  0  0  0  0  0  0  0  0  0
  1  2  1  0
  2  3  1  0
  2  4  1  0
  4  5  1  0
  5  6  1  0
  5  7  1  0
  7  8  2  0
  7  9  1  0
  9 10  1  0
 10 11  1  0
 11 12  1  0
 12 13  1  0
 13 14  1  0
 14 15  1  0
 15 16  2  0
 15 17  1  0
 17 18  1  0
 18 19  2  0
 19 20  1  0
 20 21  1  0
 12 22  1  0
 22  9  1  0
 21 17  2  0
  1 23  1  0
  1 24  1  0
  1 25  1  0
  2 26  1  0
  3 27  1  0
  3 28  1  0
  3 29  1  0
  5 30  1  0
  6 31  1  0
  6 32  1  0
  6 33  1  0
 10 34  1  0
 10 35  1  0
 11 36  1  0
 11 37  1  0
 12 38  1  0
 13 39  1  0
 13 40  1  0
 14 41  1  0
 18 42  1  0
 19 43  1  0
 20 44  1  0
 22 45  1  0
 22 46  1  0
M  END
>  <Energy>  (59) 
899.52118902867755

>  <compound_id>  (59) 
36371

>  <target_id>  (59) 
1

>  <reference_id>  (59) 
95

>  <inspiration_ids>  (59) 
[95, 96]

>  <energy_score>  (59) 
791.4406037943291

>  <distance_score>  (59) 
11.00609233383313

>  <path>  (59) 
/opt/xchem-fragalysis-2/maxwin/BulkDock/SCRATCH/511017/C36371-P95/C36371-P95.minimised.mol

>  <scratch_subdir>  (59) 
/opt/xchem-fragalysis-2/maxwin/BulkDock/SCRATCH/511017/C36371-P95

>  <fragmenstein_runtime>  (59) 
21.885448932647705

>  <fragmenstein_outcome>  (59) 
too moved

>  <fragmenstein_mode>  (59) 
expansion

>  <fragmenstein_error>  (59) 


$$$$
C36371-P96
     RDKit          3D

 46 47  0  0  0  0  0  0  0  0999 V2000
  -10.5239   -3.7719    3.0538 C   0  0  0  0  0  0  0  0  0  0  0  0
  -10.1975   -4.2423    4.4684 C   0  0  0  0  0  0  0  0  0  0  0  0
  -11.5105   -4.6733    5.1292 C   0  0  0  0  0  0  0  0  0  0  0  0
   -9.1297   -5.7535    4.4881 S   0  0  0  0  0  0  0  0  0  0  0  0
   -7.0890   -5.2840    4.4914 C   0  0  0  0  0  0  0  0  0  0  0  0
   -7.3016   -3.6778    4.5994 C   0  0  0  0  0  0  0  0  0  0  0  0
   -6.2681   -5.5205    5.9094 C   0  0  0  0  0  0  0  0  0  0  0  0
   -5.6143   -4.5139    6.1822 O   0  0  0  0  0  0  0  0  0  0  0  0
   -6.5413   -6.9164    6.8019 N   0  0  0  0  0  0  0  0  0  0  0  0
   -7.9294   -7.3110    7.9921 C   0  0  0  0  0  0  0  0  0  0  0  0
   -7.6546   -7.2570    9.3709 C   0  0  0  0  0  0  0  0  0  0  0  0
   -6.9110   -8.5491    9.3063 C   0  0  0  0  0  0  0  0  0  0  0  0
   -6.6931   -9.6363   11.0596 C   0  0  0  0  0  0  0  0  0  0  0  0
   -7.4984  -10.6501   12.5453 N   0  0  0  0  0  0  0  0  0  0  0  0
   -7.0836  -10.6754   14.4518 C   0  0  0  0  0  0  0  0  0  0  0  0
   -6.1199  -10.0676   14.9291 O   0  0  0  0  0  0  0  0  0  0  0  0
   -8.0110  -11.4258   15.7788 C   0  0  0  0  0  0  0  0  0  0  0  0
   -9.1101  -12.5246   15.9810 C   0  0  0  0  0  0  0  0  0  0  0  0
   -9.3098  -12.8228   17.2783 C   0  0  0  0  0  0  0  0  0  0  0  0
   -8.1717  -12.3296   17.7103 N   0  0  0  0  0  0  0  0  0  0  0  0
   -7.2468  -12.0303   16.7480 N   0  0  0  0  0  0  0  0  0  0  0  0
   -6.0658   -7.2816    7.9148 C   0  0  0  0  0  0  0  0  0  0  0  0
  -10.8937   -4.5898    2.4252 H   0  0  0  0  0  0  0  0  0  0  0  0
   -9.6678   -3.3202    2.5574 H   0  0  0  0  0  0  0  0  0  0  0  0
  -11.3040   -3.0020    3.0793 H   0  0  0  0  0  0  0  0  0  0  0  0
   -9.7963   -3.4342    5.0828 H   0  0  0  0  0  0  0  0  0  0  0  0
  -12.1861   -3.8162    5.2300 H   0  0  0  0  0  0  0  0  0  0  0  0
  -12.0363   -5.4390    4.5462 H   0  0  0  0  0  0  0  0  0  0  0  0
  -11.3348   -5.0706    6.1314 H   0  0  0  0  0  0  0  0  0  0  0  0
   -6.9361   -5.6989    3.5445 H   0  0  0  0  0  0  0  0  0  0  0  0
   -7.6816   -3.3452    5.5676 H   0  0  0  0  0  0  0  0  0  0  0  0
   -6.3876   -3.0897    4.5043 H   0  0  0  0  0  0  0  0  0  0  0  0
   -8.0516   -3.2502    3.9519 H   0  0  0  0  0  0  0  0  0  0  0  0
   -8.8615   -6.8637    7.5065 H   0  0  0  0  0  0  0  0  0  0  0  0
   -8.4222   -8.3375    7.8435 H   0  0  0  0  0  0  0  0  0  0  0  0
   -7.0924   -6.3733    9.5661 H   0  0  0  0  0  0  0  0  0  0  0  0
   -8.5658   -6.9561    9.8749 H   0  0  0  0  0  0  0  0  0  0  0  0
   -7.2620   -9.3819    8.6882 H   0  0  0  0  0  0  0  0  0  0  0  0
   -7.7379   -9.6116   10.9635 H   0  0  0  0  0  0  0  0  0  0  0  0
   -6.1220  -10.3723   10.5834 H   0  0  0  0  0  0  0  0  0  0  0  0
   -8.3723  -11.1393   12.3845 H   0  0  0  0  0  0  0  0  0  0  0  0
   -9.6514  -12.7615   15.0872 H   0  0  0  0  0  0  0  0  0  0  0  0
  -10.0760  -13.2421   17.9019 H   0  0  0  0  0  0  0  0  0  0  0  0
   -7.9636  -12.2215   18.6870 H   0  0  0  0  0  0  0  0  0  0  0  0
   -5.0145   -7.0452    7.6376 H   0  0  0  0  0  0  0  0  0  0  0  0
   -6.2118   -6.2003    8.1757 H   0  0  0  0  0  0  0  0  0  0  0  0
  1  2  1  0
  2  3  1  0
  2  4  1  0
  4  5  1  0
  5  6  1  0
  5  7  1  0
  7  8  2  0
  7  9  1  0
  9 10  1  0
 10 11  1  0
 11 12  1  0
 12 13  1  0
 13 14  1  0
 14 15  1  0
 15 16  2  0
 15 17  1  0
 17 18  1  0
 18 19  2  0
 19 20  1  0
 20 21  1  0
 12 22  1  0
 22  9  1  0
 21 17  2  0
  1 23  1  0
  1 24  1  0
  1 25  1  0
  2 26  1  0
  3 27  1  0
  3 28  1  0
  3 29  1  0
  5 30  1  0
  6 31  1  0
  6 32  1  0
  6 33  1  0
 10 34  1  0
 10 35  1  0
 11 36  1  0
 11 37  1  0
 12 38  1  0
 13 39  1  0
 13 40  1  0
 14 41  1  0
 18 42  1  0
 19 43  1  0
 20 44  1  0
 22 45  1  0
 22 46  1  0
M  END
>  <Energy>  (60) 
893.76375373123255

>  <compound_id>  (60) 
36371

>  <target_id>  (60) 
1

>  <reference_id>  (60) 
96

>  <inspiration_ids>  (60) 
[95, 96]

>  <energy_score>  (60) 
785.6831684968886

>  <distance_score>  (60) 
11.030279738695166

>  <path>  (60) 
/opt/xchem-fragalysis-2/maxwin/BulkDock/SCRATCH/511017/C36371-P96/C36371-P96.minimised.mol

>  <scratch_subdir>  (60) 
/opt/xchem-fragalysis-2/maxwin/BulkDock/SCRATCH/511017/C36371-P96

>  <fragmenstein_runtime>  (60) 
19.08899474143982

>  <fragmenstein_outcome>  (60) 
too moved

>  <fragmenstein_mode>  (60) 
expansion

>  <fragmenstein_error>  (60) 


$$$$
C36373-P95
     RDKit          3D

 49 50  0  0  0  0  0  0  0  0999 V2000
   -6.5267   -2.2776    5.5590 C   0  0  0  0  0  0  0  0  0  0  0  0
   -6.5124   -3.4739    6.5091 C   0  0  0  0  0  0  0  0  0  0  0  0
   -7.6922   -3.6359    7.5633 C   0  0  0  0  0  0  0  0  0  0  0  0
   -7.8957   -2.2664    8.2532 C   0  0  0  0  0  0  0  0  0  0  0  0
   -9.0418   -3.6094    6.6885 C   0  0  0  0  0  0  0  0  0  0  0  0
   -7.4831   -5.2399    8.5464 C   0  0  0  0  0  0  0  0  0  0  0  0
   -8.2263   -5.7194    7.4512 O   0  0  0  0  0  0  0  0  0  0  0  0
   -6.6182   -6.8341    9.5438 C   0  0  0  0  0  0  0  0  0  0  0  0
   -5.9400   -6.4970   10.5046 O   0  0  0  0  0  0  0  0  0  0  0  0
   -6.8756   -8.4967    9.1184 N   0  0  0  0  0  0  0  0  0  0  0  0
   -8.0928   -9.0473    9.7811 C   0  0  0  0  0  0  0  0  0  0  0  0
   -8.4208  -10.5184    9.5484 C   0  0  0  0  0  0  0  0  0  0  0  0
   -7.0916  -11.0775    9.2537 C   0  0  0  0  0  0  0  0  0  0  0  0
   -6.2184   -9.9518    9.7735 C   0  0  0  0  0  0  0  0  0  0  0  0
   -4.7590  -10.5484    9.8672 C   0  0  0  0  0  0  0  0  0  0  0  0
   -4.5177  -11.7943   10.6566 N   0  0  0  0  0  0  0  0  0  0  0  0
   -4.5661  -13.1922   10.2663 C   0  0  0  0  0  0  0  0  0  0  0  0
   -4.8899  -13.7015    9.2325 O   0  0  0  0  0  0  0  0  0  0  0  0
   -4.0143  -14.1453   11.3301 C   0  0  0  0  0  0  0  0  0  0  0  0
   -2.8595  -14.0123   12.1643 C   0  0  0  0  0  0  0  0  0  0  0  0
   -2.6582  -15.2442   12.7560 C   0  0  0  0  0  0  0  0  0  0  0  0
   -3.7098  -16.0139   12.3615 N   0  0  0  0  0  0  0  0  0  0  0  0
   -4.5344  -15.3805   11.5158 N   0  0  0  0  0  0  0  0  0  0  0  0
   -7.4119   -2.2693    4.9185 H   0  0  0  0  0  0  0  0  0  0  0  0
   -6.4619   -1.3274    6.0957 H   0  0  0  0  0  0  0  0  0  0  0  0
   -5.6538   -2.3299    4.8983 H   0  0  0  0  0  0  0  0  0  0  0  0
   -5.5641   -3.4152    7.0532 H   0  0  0  0  0  0  0  0  0  0  0  0
   -6.4680   -4.3656    5.8798 H   0  0  0  0  0  0  0  0  0  0  0  0
   -8.1181   -1.4708    7.5286 H   0  0  0  0  0  0  0  0  0  0  0  0
   -7.0287   -1.8629    8.7735 H   0  0  0  0  0  0  0  0  0  0  0  0
   -8.7970   -2.2981    8.8643 H   0  0  0  0  0  0  0  0  0  0  0  0
   -9.9141   -3.7031    7.3317 H   0  0  0  0  0  0  0  0  0  0  0  0
   -9.0911   -4.3619    5.9027 H   0  0  0  0  0  0  0  0  0  0  0  0
   -9.1755   -2.6576    6.1597 H   0  0  0  0  0  0  0  0  0  0  0  0
   -6.4955   -4.9117    8.3669 H   0  0  0  0  0  0  0  0  0  0  0  0
   -7.6822   -5.6619    6.6402 H   0  0  0  0  0  0  0  0  0  0  0  0
   -8.8836   -8.6571    9.1693 H   0  0  0  0  0  0  0  0  0  0  0  0
   -8.1283   -8.8694   10.8532 H   0  0  0  0  0  0  0  0  0  0  0  0
   -8.8666  -10.9489   10.4533 H   0  0  0  0  0  0  0  0  0  0  0  0
   -9.1370  -10.6975    8.7397 H   0  0  0  0  0  0  0  0  0  0  0  0
   -6.9254  -11.2494    8.1866 H   0  0  0  0  0  0  0  0  0  0  0  0
   -6.9675  -12.0303    9.7725 H   0  0  0  0  0  0  0  0  0  0  0  0
   -6.3668   -9.7988   10.8605 H   0  0  0  0  0  0  0  0  0  0  0  0
   -4.4280  -10.8444    8.8665 H   0  0  0  0  0  0  0  0  0  0  0  0
   -4.1037   -9.8227   10.3549 H   0  0  0  0  0  0  0  0  0  0  0  0
   -4.1150  -11.7237   11.5828 H   0  0  0  0  0  0  0  0  0  0  0  0
   -2.2010  -13.1583   12.2353 H   0  0  0  0  0  0  0  0  0  0  0  0
   -1.8908  -15.6203   13.4171 H   0  0  0  0  0  0  0  0  0  0  0  0
   -3.9213  -16.9751   12.6107 H   0  0  0  0  0  0  0  0  0  0  0  0
  1  2  1  0
  2  3  1  0
  3  4  1  0
  3  5  1  0
  3  6  1  0
  6  7  1  0
  6  8  1  0
  8  9  2  0
  8 10  1  0
 10 11  1  0
 11 12  1  0
 12 13  1  0
 13 14  1  0
 14 15  1  0
 15 16  1  0
 16 17  1  0
 17 18  2  0
 17 19  1  0
 19 20  1  0
 20 21  2  0
 21 22  1  0
 22 23  1  0
 14 10  1  0
 23 19  2  0
  1 24  1  0
  1 25  1  0
  1 26  1  0
  2 27  1  0
  2 28  1  0
  4 29  1  0
  4 30  1  0
  4 31  1  0
  5 32  1  0
  5 33  1  0
  5 34  1  0
  6 35  1  0
  7 36  1  0
 11 37  1  0
 11 38  1  0
 12 39  1  0
 12 40  1  0
 13 41  1  0
 13 42  1  0
 14 43  1  0
 15 44  1  0
 15 45  1  0
 16 46  1  0
 20 47  1  0
 21 48  1  0
 22 49  1  0
M  END
>  <Energy>  (61) 
442.24555126961428

>  <compound_id>  (61) 
36373

>  <target_id>  (61) 
1

>  <reference_id>  (61) 
95

>  <inspiration_ids>  (61) 
[95, 96]

>  <energy_score>  (61) 
314.374024240414

>  <distance_score>  (61) 
13.595543984114894

>  <path>  (61) 
/opt/xchem-fragalysis-2/maxwin/BulkDock/SCRATCH/511017/C36373-P95/C36373-P95.minimised.mol

>  <scratch_subdir>  (61) 
/opt/xchem-fragalysis-2/maxwin/BulkDock/SCRATCH/511017/C36373-P95

>  <fragmenstein_runtime>  (61) 
26.166292905807495

>  <fragmenstein_outcome>  (61) 
too moved

>  <fragmenstein_mode>  (61) 
expansion

>  <fragmenstein_error>  (61) 


$$$$
C36373-P96
     RDKit          3D

 49 50  0  0  0  0  0  0  0  0999 V2000
  -11.2007   -3.8564    0.9816 C   0  0  0  0  0  0  0  0  0  0  0  0
  -12.2837   -4.0071    2.0432 C   0  0  0  0  0  0  0  0  0  0  0  0
  -11.8635   -4.1043    3.5514 C   0  0  0  0  0  0  0  0  0  0  0  0
  -10.8348   -2.9994    3.8699 C   0  0  0  0  0  0  0  0  0  0  0  0
  -13.1576   -3.8015    4.3531 C   0  0  0  0  0  0  0  0  0  0  0  0
  -11.3120   -5.5573    3.9235 C   0  0  0  0  0  0  0  0  0  0  0  0
  -10.3632   -5.9568    2.9411 O   0  0  0  0  0  0  0  0  0  0  0  0
  -10.7928   -5.6712    5.4204 C   0  0  0  0  0  0  0  0  0  0  0  0
  -11.3642   -5.0263    6.2456 O   0  0  0  0  0  0  0  0  0  0  0  0
   -9.6199   -6.4904    5.5252 N   0  0  0  0  0  0  0  0  0  0  0  0
   -8.2491   -5.5503    5.1662 C   0  0  0  0  0  0  0  0  0  0  0  0
   -6.6513   -5.5252    5.3662 C   0  0  0  0  0  0  0  0  0  0  0  0
   -6.6097   -6.4402    6.9228 C   0  0  0  0  0  0  0  0  0  0  0  0
   -8.5896   -7.0059    7.0691 C   0  0  0  0  0  0  0  0  0  0  0  0
   -8.7770   -9.0222    7.4967 C   0  0  0  0  0  0  0  0  0  0  0  0
   -8.8578   -9.9346    8.7165 N   0  0  0  0  0  0  0  0  0  0  0  0
   -8.9709  -11.3796    8.8158 C   0  0  0  0  0  0  0  0  0  0  0  0
   -8.9468  -12.2241    7.9662 O   0  0  0  0  0  0  0  0  0  0  0  0
   -9.2728  -11.9028   10.2164 C   0  0  0  0  0  0  0  0  0  0  0  0
   -9.4980  -13.2912   10.5577 C   0  0  0  0  0  0  0  0  0  0  0  0
  -10.1500  -13.2949   11.7669 C   0  0  0  0  0  0  0  0  0  0  0  0
  -10.2222  -11.9850   12.1242 N   0  0  0  0  0  0  0  0  0  0  0  0
   -9.5846  -11.1370   11.2843 N   0  0  0  0  0  0  0  0  0  0  0  0
  -11.6714   -3.6994    0.0044 H   0  0  0  0  0  0  0  0  0  0  0  0
  -10.5641   -2.9891    1.1722 H   0  0  0  0  0  0  0  0  0  0  0  0
  -10.5760   -4.7452    0.8850 H   0  0  0  0  0  0  0  0  0  0  0  0
  -12.8983   -4.8814    1.7914 H   0  0  0  0  0  0  0  0  0  0  0  0
  -12.9431   -3.1374    1.9165 H   0  0  0  0  0  0  0  0  0  0  0  0
  -11.1988   -2.0207    3.5358 H   0  0  0  0  0  0  0  0  0  0  0  0
   -9.8724   -3.1781    3.3823 H   0  0  0  0  0  0  0  0  0  0  0  0
  -10.6441   -2.9159    4.9447 H   0  0  0  0  0  0  0  0  0  0  0  0
  -13.6611   -2.9044    3.9728 H   0  0  0  0  0  0  0  0  0  0  0  0
  -12.9648   -3.5979    5.4081 H   0  0  0  0  0  0  0  0  0  0  0  0
  -13.8683   -4.6320    4.2834 H   0  0  0  0  0  0  0  0  0  0  0  0
  -12.1398   -6.2737    3.8516 H   0  0  0  0  0  0  0  0  0  0  0  0
   -9.7401   -5.2262    2.8298 H   0  0  0  0  0  0  0  0  0  0  0  0
   -8.2704   -5.7206    4.0835 H   0  0  0  0  0  0  0  0  0  0  0  0
   -8.6014   -4.5032    5.0858 H   0  0  0  0  0  0  0  0  0  0  0  0
   -6.1828   -4.5316    5.3328 H   0  0  0  0  0  0  0  0  0  0  0  0
   -6.1188   -6.1399    4.6428 H   0  0  0  0  0  0  0  0  0  0  0  0
   -6.1390   -6.0120    7.7789 H   0  0  0  0  0  0  0  0  0  0  0  0
   -5.8968   -7.0895    6.4734 H   0  0  0  0  0  0  0  0  0  0  0  0
   -9.2499   -6.5239    7.7840 H   0  0  0  0  0  0  0  0  0  0  0  0
   -9.5469   -9.4219    6.8118 H   0  0  0  0  0  0  0  0  0  0  0  0
   -8.0223   -9.7152    7.0436 H   0  0  0  0  0  0  0  0  0  0  0  0
   -8.8376   -9.5402    9.6513 H   0  0  0  0  0  0  0  0  0  0  0  0
   -9.3350  -14.1385    9.9050 H   0  0  0  0  0  0  0  0  0  0  0  0
  -10.5945  -14.0814   12.3600 H   0  0  0  0  0  0  0  0  0  0  0  0
  -10.6985  -11.5838   12.9191 H   0  0  0  0  0  0  0  0  0  0  0  0
  1  2  1  0
  2  3  1  0
  3  4  1  0
  3  5  1  0
  3  6  1  0
  6  7  1  0
  6  8  1  0
  8  9  2  0
  8 10  1  0
 10 11  1  0
 11 12  1  0
 12 13  1  0
 13 14  1  0
 14 15  1  0
 15 16  1  0
 16 17  1  0
 17 18  2  0
 17 19  1  0
 19 20  1  0
 20 21  2  0
 21 22  1  0
 22 23  1  0
 14 10  1  0
 23 19  2  0
  1 24  1  0
  1 25  1  0
  1 26  1  0
  2 27  1  0
  2 28  1  0
  4 29  1  0
  4 30  1  0
  4 31  1  0
  5 32  1  0
  5 33  1  0
  5 34  1  0
  6 35  1  0
  7 36  1  0
 11 37  1  0
 11 38  1  0
 12 39  1  0
 12 40  1  0
 13 41  1  0
 13 42  1  0
 14 43  1  0
 15 44  1  0
 15 45  1  0
 16 46  1  0
 20 47  1  0
 21 48  1  0
 22 49  1  0
M  END
>  <Energy>  (62) 
430.13260081692698

>  <compound_id>  (62) 
36373

>  <target_id>  (62) 
1

>  <reference_id>  (62) 
96

>  <inspiration_ids>  (62) 
[95, 96]

>  <energy_score>  (62) 
302.26107378771894

>  <distance_score>  (62) 
13.312855625065302

>  <path>  (62) 
/opt/xchem-fragalysis-2/maxwin/BulkDock/SCRATCH/511017/C36373-P96/C36373-P96.minimised.mol

>  <scratch_subdir>  (62) 
/opt/xchem-fragalysis-2/maxwin/BulkDock/SCRATCH/511017/C36373-P96

>  <fragmenstein_runtime>  (62) 
23.799248456954956

>  <fragmenstein_outcome>  (62) 
too moved

>  <fragmenstein_mode>  (62) 
expansion

>  <fragmenstein_error>  (62) 


$$$$
C36383-P95
     RDKit          3D

 46 47  0  0  0  0  0  0  0  0999 V2000
   -3.3772   -8.8192   17.2924 C   0  0  0  0  0  0  0  0  0  0  0  0
   -4.8880   -8.5084   17.1618 C   0  0  0  0  0  0  0  0  0  0  0  0
   -5.5038   -9.2197   15.9522 C   0  0  0  0  0  0  0  0  0  0  0  0
   -5.0432   -6.9409   16.7904 C   0  0  0  0  0  0  0  0  0  0  0  0
   -5.6249   -6.2049   17.5415 O   0  0  0  0  0  0  0  0  0  0  0  0
   -4.4204   -6.6726   15.4492 N   0  0  0  0  0  0  0  0  0  0  0  0
   -4.2492   -5.4082   14.6949 C   0  0  0  0  0  0  0  0  0  0  0  0
   -5.2578   -5.0169   13.5159 C   0  0  0  0  0  0  0  0  0  0  0  0
   -5.3687   -5.5548   11.7436 C   0  0  0  0  0  0  0  0  0  0  0  0
   -5.5209   -7.0770   12.4400 C   0  0  0  0  0  0  0  0  0  0  0  0
   -4.6052   -7.9560   11.7581 C   0  0  0  0  0  0  0  0  0  0  0  0
   -4.7727   -7.2510   10.4420 C   0  0  0  0  0  0  0  0  0  0  0  0
   -4.1285   -5.5556   10.1909 N   0  0  0  0  0  0  0  0  0  0  0  0
   -4.1543   -4.6233    8.5548 C   0  0  0  0  0  0  0  0  0  0  0  0
   -5.1244   -3.7830    8.0200 O   0  0  0  0  0  0  0  0  0  0  0  0
   -3.0380   -4.6116    7.7000 C   0  0  0  0  0  0  0  0  0  0  0  0
   -2.9439   -3.0874    7.5535 O   0  0  0  0  0  0  0  0  0  0  0  0
   -5.6126   -9.1350   18.4431 C   0  0  0  0  0  0  0  0  0  0  0  0
   -6.5666   -8.6137   19.3580 C   0  0  0  0  0  0  0  0  0  0  0  0
   -6.8876   -9.6409   20.2243 C   0  0  0  0  0  0  0  0  0  0  0  0
   -6.1519  -10.7074   19.8197 N   0  0  0  0  0  0  0  0  0  0  0  0
   -5.3781  -10.4377   18.7538 N   0  0  0  0  0  0  0  0  0  0  0  0
   -2.9656   -8.3241   18.1801 H   0  0  0  0  0  0  0  0  0  0  0  0
   -3.1886   -9.8936   17.3955 H   0  0  0  0  0  0  0  0  0  0  0  0
   -2.7867   -8.4804   16.4367 H   0  0  0  0  0  0  0  0  0  0  0  0
   -5.7297  -10.2448   16.2145 H   0  0  0  0  0  0  0  0  0  0  0  0
   -4.8604   -9.2209   15.0697 H   0  0  0  0  0  0  0  0  0  0  0  0
   -6.4382   -8.7494   15.6463 H   0  0  0  0  0  0  0  0  0  0  0  0
   -3.9410   -7.5036   15.1327 H   0  0  0  0  0  0  0  0  0  0  0  0
   -3.2152   -5.3695   14.3441 H   0  0  0  0  0  0  0  0  0  0  0  0
   -4.3457   -4.6237   15.4562 H   0  0  0  0  0  0  0  0  0  0  0  0
   -5.3519   -3.9383   13.6486 H   0  0  0  0  0  0  0  0  0  0  0  0
   -6.2447   -5.3353   13.9043 H   0  0  0  0  0  0  0  0  0  0  0  0
   -6.3241   -5.1653   11.4892 H   0  0  0  0  0  0  0  0  0  0  0  0
   -6.5205   -7.4708   12.4048 H   0  0  0  0  0  0  0  0  0  0  0  0
   -5.3206   -7.1902   13.4915 H   0  0  0  0  0  0  0  0  0  0  0  0
   -3.6257   -8.0673   12.2355 H   0  0  0  0  0  0  0  0  0  0  0  0
   -4.9131   -8.9775   11.7016 H   0  0  0  0  0  0  0  0  0  0  0  0
   -5.0950   -8.0727    9.8185 H   0  0  0  0  0  0  0  0  0  0  0  0
   -5.8451   -6.9698   10.3336 H   0  0  0  0  0  0  0  0  0  0  0  0
   -3.5672   -4.5891    6.7629 H   0  0  0  0  0  0  0  0  0  0  0  0
   -2.4353   -5.2361    7.1177 H   0  0  0  0  0  0  0  0  0  0  0  0
   -3.8705   -2.7641    7.4781 H   0  0  0  0  0  0  0  0  0  0  0  0
   -6.9735   -7.6110   19.3721 H   0  0  0  0  0  0  0  0  0  0  0  0
   -7.5627   -9.6942   21.0657 H   0  0  0  0  0  0  0  0  0  0  0  0
   -6.1219  -11.6423   20.2128 H   0  0  0  0  0  0  0  0  0  0  0  0
  1  2  1  0
  2  3  1  0
  2  4  1  0
  4  5  2  0
  4  6  1  0
  6  7  1  0
  7  8  1  0
  8  9  1  0
  9 10  1  0
 10 11  1  0
 11 12  1  0
 12 13  1  0
 13 14  1  0
 14 15  2  0
 14 16  1  0
 16 17  1  0
  2 18  1  0
 18 19  1  0
 19 20  2  0
 20 21  1  0
 21 22  1  0
 13  9  1  0
 22 18  2  0
  1 23  1  0
  1 24  1  0
  1 25  1  0
  3 26  1  0
  3 27  1  0
  3 28  1  0
  6 29  1  0
  7 30  1  0
  7 31  1  0
  8 32  1  0
  8 33  1  0
  9 34  1  0
 10 35  1  0
 10 36  1  0
 11 37  1  0
 11 38  1  0
 12 39  1  0
 12 40  1  0
 16 41  1  0
 16 42  1  0
 17 43  1  0
 19 44  1  0
 20 45  1  0
 21 46  1  0
M  END
>  <Energy>  (63) 
542.01014230211183

>  <compound_id>  (63) 
36383

>  <target_id>  (63) 
1

>  <reference_id>  (63) 
95

>  <inspiration_ids>  (63) 
[95, 96]

>  <energy_score>  (63) 
451.9786890571744

>  <distance_score>  (63) 
12.94582347487807

>  <path>  (63) 
/opt/xchem-fragalysis-2/maxwin/BulkDock/SCRATCH/511017/C36383-P95/C36383-P95.minimised.mol

>  <scratch_subdir>  (63) 
/opt/xchem-fragalysis-2/maxwin/BulkDock/SCRATCH/511017/C36383-P95

>  <fragmenstein_runtime>  (63) 
32.2829155921936

>  <fragmenstein_outcome>  (63) 
too moved

>  <fragmenstein_mode>  (63) 
expansion

>  <fragmenstein_error>  (63) 


$$$$
C36383-P96
     RDKit          3D

 46 47  0  0  0  0  0  0  0  0999 V2000
   -7.8677  -16.9884   18.1282 C   0  0  0  0  0  0  0  0  0  0  0  0
   -8.7516  -15.7391   16.8478 C   0  0  0  0  0  0  0  0  0  0  0  0
   -8.2098  -16.3646   15.6081 C   0  0  0  0  0  0  0  0  0  0  0  0
   -8.9967  -13.7575   16.0030 C   0  0  0  0  0  0  0  0  0  0  0  0
   -8.6532  -12.7797   16.6675 O   0  0  0  0  0  0  0  0  0  0  0  0
   -9.9008  -13.5906   14.2668 N   0  0  0  0  0  0  0  0  0  0  0  0
  -10.3135  -12.0932   13.2255 C   0  0  0  0  0  0  0  0  0  0  0  0
  -11.5720  -10.7197   12.6530 C   0  0  0  0  0  0  0  0  0  0  0  0
  -13.3954   -9.9945   12.7552 C   0  0  0  0  0  0  0  0  0  0  0  0
  -14.6527  -10.6706   13.4025 C   0  0  0  0  0  0  0  0  0  0  0  0
  -15.7727  -10.1121   12.5775 C   0  0  0  0  0  0  0  0  0  0  0  0
  -15.1138   -8.8798   12.0754 C   0  0  0  0  0  0  0  0  0  0  0  0
  -14.1308   -8.3783   13.0583 N   0  0  0  0  0  0  0  0  0  0  0  0
  -13.6879   -7.0533   12.6904 C   0  0  0  0  0  0  0  0  0  0  0  0
  -12.7605   -6.6976   12.0093 O   0  0  0  0  0  0  0  0  0  0  0  0
  -14.6056   -6.0027   13.3339 C   0  0  0  0  0  0  0  0  0  0  0  0
  -14.8053   -4.9064   12.4496 O   0  0  0  0  0  0  0  0  0  0  0  0
   -9.9137  -16.9714   17.6352 C   0  0  0  0  0  0  0  0  0  0  0  0
   -9.8635  -18.5379   17.4981 C   0  0  0  0  0  0  0  0  0  0  0  0
  -10.8134  -19.0703   18.3236 C   0  0  0  0  0  0  0  0  0  0  0  0
  -11.3341  -17.9708   18.8942 N   0  0  0  0  0  0  0  0  0  0  0  0
  -10.5372  -16.8760   18.8356 N   0  0  0  0  0  0  0  0  0  0  0  0
   -8.2347  -16.8720   19.1652 H   0  0  0  0  0  0  0  0  0  0  0  0
   -7.9026  -18.0305   17.8305 H   0  0  0  0  0  0  0  0  0  0  0  0
   -6.7599  -17.0193   18.2678 H   0  0  0  0  0  0  0  0  0  0  0  0
   -8.4314  -16.0714   14.5663 H   0  0  0  0  0  0  0  0  0  0  0  0
   -7.2046  -16.0043   15.6995 H   0  0  0  0  0  0  0  0  0  0  0  0
   -8.5637  -17.3740   15.6550 H   0  0  0  0  0  0  0  0  0  0  0  0
  -10.0176  -14.5222   13.8520 H   0  0  0  0  0  0  0  0  0  0  0  0
  -10.5369  -12.7538   12.3683 H   0  0  0  0  0  0  0  0  0  0  0  0
   -9.4231  -11.6190   12.8466 H   0  0  0  0  0  0  0  0  0  0  0  0
  -11.5606  -10.9887   11.5811 H   0  0  0  0  0  0  0  0  0  0  0  0
  -10.9133   -9.8463   12.6238 H   0  0  0  0  0  0  0  0  0  0  0  0
  -12.6714   -9.3987   13.2562 H   0  0  0  0  0  0  0  0  0  0  0  0
  -14.8875  -10.3277   14.4177 H   0  0  0  0  0  0  0  0  0  0  0  0
  -14.7965  -11.7218   13.4786 H   0  0  0  0  0  0  0  0  0  0  0  0
  -16.0996  -10.7588   11.7600 H   0  0  0  0  0  0  0  0  0  0  0  0
  -16.6471   -9.8941   13.2010 H   0  0  0  0  0  0  0  0  0  0  0  0
  -14.7495   -8.9504   11.0698 H   0  0  0  0  0  0  0  0  0  0  0  0
  -15.8906   -8.1074   11.9826 H   0  0  0  0  0  0  0  0  0  0  0  0
  -14.1257   -5.6377   14.2470 H   0  0  0  0  0  0  0  0  0  0  0  0
  -15.5826   -6.4186   13.5923 H   0  0  0  0  0  0  0  0  0  0  0  0
  -13.9258   -4.7316   12.0566 H   0  0  0  0  0  0  0  0  0  0  0  0
   -9.2733  -19.0978   16.7816 H   0  0  0  0  0  0  0  0  0  0  0  0
  -11.1905  -20.0718   18.4719 H   0  0  0  0  0  0  0  0  0  0  0  0
  -12.2110  -17.8934   19.3881 H   0  0  0  0  0  0  0  0  0  0  0  0
  1  2  1  0
  2  3  1  0
  2  4  1  0
  4  5  2  0
  4  6  1  0
  6  7  1  0
  7  8  1  0
  8  9  1  0
  9 10  1  0
 10 11  1  0
 11 12  1  0
 12 13  1  0
 13 14  1  0
 14 15  2  0
 14 16  1  0
 16 17  1  0
  2 18  1  0
 18 19  1  0
 19 20  2  0
 20 21  1  0
 21 22  1  0
 13  9  1  0
 22 18  2  0
  1 23  1  0
  1 24  1  0
  1 25  1  0
  3 26  1  0
  3 27  1  0
  3 28  1  0
  6 29  1  0
  7 30  1  0
  7 31  1  0
  8 32  1  0
  8 33  1  0
  9 34  1  0
 10 35  1  0
 10 36  1  0
 11 37  1  0
 11 38  1  0
 12 39  1  0
 12 40  1  0
 16 41  1  0
 16 42  1  0
 17 43  1  0
 19 44  1  0
 20 45  1  0
 21 46  1  0
M  END
>  <Energy>  (64) 
845.92648492185185

>  <compound_id>  (64) 
36383

>  <target_id>  (64) 
1

>  <reference_id>  (64) 
96

>  <inspiration_ids>  (64) 
[95, 96]

>  <energy_score>  (64) 
755.8950316768962

>  <distance_score>  (64) 
12.65682856455373

>  <path>  (64) 
/opt/xchem-fragalysis-2/maxwin/BulkDock/SCRATCH/511017/C36383-P96/C36383-P96.minimised.mol

>  <scratch_subdir>  (64) 
/opt/xchem-fragalysis-2/maxwin/BulkDock/SCRATCH/511017/C36383-P96

>  <fragmenstein_runtime>  (64) 
25.839400053024292

>  <fragmenstein_outcome>  (64) 
too moved

>  <fragmenstein_mode>  (64) 
expansion

>  <fragmenstein_error>  (64) 


$$$$
C36385-P95
     RDKit          3D

 43 44  0  0  0  0  0  0  0  0999 V2000
  -10.1857    4.2766    9.2062 C   0  0  0  0  0  0  0  0  0  0  0  0
  -10.4889    2.8673    9.7054 C   0  0  0  0  0  0  0  0  0  0  0  0
  -11.0915    2.9172   11.1017 C   0  0  0  0  0  0  0  0  0  0  0  0
   -9.2294    2.1503    9.7056 O   0  0  0  0  0  0  0  0  0  0  0  0
   -9.0977    0.7823    9.6918 C   0  0  0  0  0  0  0  0  0  0  0  0
   -7.9980    0.3222    9.8280 O   0  0  0  0  0  0  0  0  0  0  0  0
  -10.3308    0.1502    9.4763 N   0  0  0  0  0  0  0  0  0  0  0  0
  -10.5898    0.0117    8.0013 C   0  0  0  0  0  0  0  0  0  0  0  0
  -12.0050   -0.3907    7.7481 C   0  0  0  0  0  0  0  0  0  0  0  0
  -12.1545   -1.3422    8.8778 C   0  0  0  0  0  0  0  0  0  0  0  0
  -10.7193   -1.3799    9.4540 C   0  0  0  0  0  0  0  0  0  0  0  0
  -10.6492   -2.0684   11.0649 C   0  0  0  0  0  0  0  0  0  0  0  0
  -10.9940   -1.2599   11.9054 O   0  0  0  0  0  0  0  0  0  0  0  0
  -10.0257   -3.6382   11.2809 N   0  0  0  0  0  0  0  0  0  0  0  0
   -9.5665   -4.5160   12.8047 C   0  0  0  0  0  0  0  0  0  0  0  0
  -10.1521   -4.9722   14.3867 C   0  0  0  0  0  0  0  0  0  0  0  0
  -11.5288   -5.3482   14.9785 C   0  0  0  0  0  0  0  0  0  0  0  0
  -12.5815   -6.2443   14.6020 C   0  0  0  0  0  0  0  0  0  0  0  0
  -13.6109   -6.0307   15.4921 C   0  0  0  0  0  0  0  0  0  0  0  0
  -13.1189   -5.1624   16.4147 N   0  0  0  0  0  0  0  0  0  0  0  0
  -11.8555   -4.7796   16.1614 N   0  0  0  0  0  0  0  0  0  0  0  0
   -9.7403    4.2378    8.2060 H   0  0  0  0  0  0  0  0  0  0  0  0
  -11.0930    4.8866    9.1600 H   0  0  0  0  0  0  0  0  0  0  0  0
   -9.4593    4.7775    9.8553 H   0  0  0  0  0  0  0  0  0  0  0  0
  -11.2030    2.4171    9.0119 H   0  0  0  0  0  0  0  0  0  0  0  0
  -10.4023    3.3872   11.8107 H   0  0  0  0  0  0  0  0  0  0  0  0
  -11.3046    1.9107   11.4729 H   0  0  0  0  0  0  0  0  0  0  0  0
  -12.0274    3.4847   11.1051 H   0  0  0  0  0  0  0  0  0  0  0  0
   -9.8309   -0.5997    7.4822 H   0  0  0  0  0  0  0  0  0  0  0  0
  -10.4316    0.9981    7.5431 H   0  0  0  0  0  0  0  0  0  0  0  0
  -12.7030    0.4476    7.8393 H   0  0  0  0  0  0  0  0  0  0  0  0
  -12.1295   -0.8496    6.7631 H   0  0  0  0  0  0  0  0  0  0  0  0
  -12.8567   -0.9517    9.6235 H   0  0  0  0  0  0  0  0  0  0  0  0
  -12.5713   -2.2670    8.4819 H   0  0  0  0  0  0  0  0  0  0  0  0
   -9.9283   -1.9141    8.8965 H   0  0  0  0  0  0  0  0  0  0  0  0
   -9.9137   -4.0901   10.3732 H   0  0  0  0  0  0  0  0  0  0  0  0
   -9.2943   -3.5632   13.3006 H   0  0  0  0  0  0  0  0  0  0  0  0
   -8.5288   -4.8038   12.6755 H   0  0  0  0  0  0  0  0  0  0  0  0
   -9.4387   -5.7141   14.7463 H   0  0  0  0  0  0  0  0  0  0  0  0
   -9.8675   -4.0950   14.9983 H   0  0  0  0  0  0  0  0  0  0  0  0
  -12.6644   -6.8867   13.7414 H   0  0  0  0  0  0  0  0  0  0  0  0
  -14.6112   -6.4335   15.5626 H   0  0  0  0  0  0  0  0  0  0  0  0
  -13.5778   -4.7931   17.2407 H   0  0  0  0  0  0  0  0  0  0  0  0
  1  2  1  0
  2  3  1  0
  2  4  1  0
  4  5  1  0
  5  6  2  0
  5  7  1  0
  7  8  1  0
  8  9  1  0
  9 10  1  0
 10 11  1  0
 11 12  1  0
 12 13  2  0
 12 14  1  0
 14 15  1  0
 15 16  1  0
 16 17  1  0
 17 18  1  0
 18 19  2  0
 19 20  1  0
 20 21  1  0
 11  7  1  0
 21 17  2  0
  1 22  1  0
  1 23  1  0
  1 24  1  0
  2 25  1  0
  3 26  1  0
  3 27  1  0
  3 28  1  0
  8 29  1  0
  8 30  1  0
  9 31  1  0
  9 32  1  0
 10 33  1  0
 10 34  1  0
 11 35  1  0
 14 36  1  0
 15 37  1  0
 15 38  1  0
 16 39  1  0
 16 40  1  0
 18 41  1  0
 19 42  1  0
 20 43  1  0
M  END
>  <Energy>  (65) 
213.96252191246427

>  <compound_id>  (65) 
36385

>  <target_id>  (65) 
1

>  <reference_id>  (65) 
95

>  <inspiration_ids>  (65) 
[95, 96]

>  <energy_score>  (65) 
159.04481593400283

>  <distance_score>  (65) 
14.660014308698992

>  <path>  (65) 
/opt/xchem-fragalysis-2/maxwin/BulkDock/SCRATCH/511017/C36385-P95/C36385-P95.minimised.mol

>  <scratch_subdir>  (65) 
/opt/xchem-fragalysis-2/maxwin/BulkDock/SCRATCH/511017/C36385-P95

>  <fragmenstein_runtime>  (65) 
32.35982894897461

>  <fragmenstein_outcome>  (65) 
too moved

>  <fragmenstein_mode>  (65) 
expansion

>  <fragmenstein_error>  (65) 


$$$$
C36385-P96
     RDKit          3D

 43 44  0  0  0  0  0  0  0  0999 V2000
  -10.8122   -4.6218    5.5978 C   0  0  0  0  0  0  0  0  0  0  0  0
   -9.7428   -5.5828    5.0896 C   0  0  0  0  0  0  0  0  0  0  0  0
  -10.3813   -6.4640    4.0718 C   0  0  0  0  0  0  0  0  0  0  0  0
   -8.9409   -6.4512    6.0109 O   0  0  0  0  0  0  0  0  0  0  0  0
   -9.3769   -7.2005    7.1150 C   0  0  0  0  0  0  0  0  0  0  0  0
  -10.2461   -6.6052    7.6756 O   0  0  0  0  0  0  0  0  0  0  0  0
   -8.8116   -8.9482    7.5507 N   0  0  0  0  0  0  0  0  0  0  0  0
   -7.6385   -8.9258    8.6305 C   0  0  0  0  0  0  0  0  0  0  0  0
   -7.2320  -10.4128    8.8948 C   0  0  0  0  0  0  0  0  0  0  0  0
   -8.4206  -11.2012    8.4412 C   0  0  0  0  0  0  0  0  0  0  0  0
   -9.4757  -10.1528    8.7474 C   0  0  0  0  0  0  0  0  0  0  0  0
   -9.5247  -10.5322   10.4435 C   0  0  0  0  0  0  0  0  0  0  0  0
  -10.9682  -11.1486   10.8466 O   0  0  0  0  0  0  0  0  0  0  0  0
   -9.0002  -10.5202   11.4035 N   0  0  0  0  0  0  0  0  0  0  0  0
   -9.2043  -10.8051   13.0749 C   0  0  0  0  0  0  0  0  0  0  0  0
   -8.0677  -10.6257   14.7804 C   0  0  0  0  0  0  0  0  0  0  0  0
   -8.4571  -11.7165   16.2560 C   0  0  0  0  0  0  0  0  0  0  0  0
   -8.7665  -13.1174   16.5062 C   0  0  0  0  0  0  0  0  0  0  0  0
   -9.2639  -13.3716   17.7705 C   0  0  0  0  0  0  0  0  0  0  0  0
   -9.9439  -12.2848   17.7116 N   0  0  0  0  0  0  0  0  0  0  0  0
   -8.9959  -11.2414   17.3706 N   0  0  0  0  0  0  0  0  0  0  0  0
  -11.3770   -4.1871    4.7644 H   0  0  0  0  0  0  0  0  0  0  0  0
  -11.5217   -5.1297    6.2430 H   0  0  0  0  0  0  0  0  0  0  0  0
  -10.3826   -3.7714    6.1283 H   0  0  0  0  0  0  0  0  0  0  0  0
   -8.9846   -4.9804    4.5723 H   0  0  0  0  0  0  0  0  0  0  0  0
  -11.1278   -7.1033    4.5523 H   0  0  0  0  0  0  0  0  0  0  0  0
   -9.5974   -7.0786    3.6338 H   0  0  0  0  0  0  0  0  0  0  0  0
  -10.8643   -5.8902    3.2746 H   0  0  0  0  0  0  0  0  0  0  0  0
   -6.8624   -8.2019    8.4372 H   0  0  0  0  0  0  0  0  0  0  0  0
   -7.9859   -8.5577    9.5879 H   0  0  0  0  0  0  0  0  0  0  0  0
   -6.9893  -10.5406    9.9552 H   0  0  0  0  0  0  0  0  0  0  0  0
   -6.4028  -10.8915    8.3884 H   0  0  0  0  0  0  0  0  0  0  0  0
   -8.3723  -11.4205    7.3673 H   0  0  0  0  0  0  0  0  0  0  0  0
   -8.5234  -12.1538    8.9716 H   0  0  0  0  0  0  0  0  0  0  0  0
  -10.3809  -10.5700    8.2861 H   0  0  0  0  0  0  0  0  0  0  0  0
   -8.2714  -10.3017   11.9989 H   0  0  0  0  0  0  0  0  0  0  0  0
  -10.1265  -10.2334   13.1336 H   0  0  0  0  0  0  0  0  0  0  0  0
   -9.6776  -11.8104   13.0635 H   0  0  0  0  0  0  0  0  0  0  0  0
   -8.3218   -9.6152   15.1361 H   0  0  0  0  0  0  0  0  0  0  0  0
   -6.9994  -10.7041   14.7223 H   0  0  0  0  0  0  0  0  0  0  0  0
   -8.4828  -13.9757   15.9163 H   0  0  0  0  0  0  0  0  0  0  0  0
   -9.5293  -14.1901   18.4096 H   0  0  0  0  0  0  0  0  0  0  0  0
  -10.8189  -12.0733   18.1773 H   0  0  0  0  0  0  0  0  0  0  0  0
  1  2  1  0
  2  3  1  0
  2  4  1  0
  4  5  1  0
  5  6  2  0
  5  7  1  0
  7  8  1  0
  8  9  1  0
  9 10  1  0
 10 11  1  0
 11 12  1  0
 12 13  2  0
 12 14  1  0
 14 15  1  0
 15 16  1  0
 16 17  1  0
 17 18  1  0
 18 19  2  0
 19 20  1  0
 20 21  1  0
 11  7  1  0
 21 17  2  0
  1 22  1  0
  1 23  1  0
  1 24  1  0
  2 25  1  0
  3 26  1  0
  3 27  1  0
  3 28  1  0
  8 29  1  0
  8 30  1  0
  9 31  1  0
  9 32  1  0
 10 33  1  0
 10 34  1  0
 11 35  1  0
 14 36  1  0
 15 37  1  0
 15 38  1  0
 16 39  1  0
 16 40  1  0
 18 41  1  0
 19 42  1  0
 20 43  1  0
M  END
>  <Energy>  (66) 
604.95860586416097

>  <compound_id>  (66) 
36385

>  <target_id>  (66) 
1

>  <reference_id>  (66) 
96

>  <inspiration_ids>  (66) 
[95, 96]

>  <energy_score>  (66) 
550.0408998856947

>  <distance_score>  (66) 
12.183274078893053

>  <path>  (66) 
/opt/xchem-fragalysis-2/maxwin/BulkDock/SCRATCH/511017/C36385-P96/C36385-P96.minimised.mol

>  <scratch_subdir>  (66) 
/opt/xchem-fragalysis-2/maxwin/BulkDock/SCRATCH/511017/C36385-P96

>  <fragmenstein_runtime>  (66) 
25.51520347595215

>  <fragmenstein_outcome>  (66) 
too moved

>  <fragmenstein_mode>  (66) 
expansion

>  <fragmenstein_error>  (66) 


$$$$
C36388-P95
     RDKit          3D

 39 42  0  0  0  0  0  0  0  0999 V2000
   -8.7083  -12.3737   17.9493 O   0  0  0  0  0  0  0  0  0  0  0  0
   -9.8782  -12.5497   18.0156 C   0  0  0  0  0  0  0  0  0  0  0  0
  -10.9238  -11.6430   16.6171 N   0  0  0  0  0  0  0  0  0  0  0  0
  -10.3032  -10.2427   15.0561 C   0  0  0  0  0  0  0  0  0  0  0  0
   -9.2499   -8.4741   14.3318 C   0  0  0  0  0  0  0  0  0  0  0  0
   -9.6283   -6.4122   14.5487 C   0  0  0  0  0  0  0  0  0  0  0  0
   -8.3337   -5.2149   14.3206 C   0  0  0  0  0  0  0  0  0  0  0  0
   -7.2826   -5.7428   13.2783 N   0  0  0  0  0  0  0  0  0  0  0  0
   -8.0489   -4.8567   11.7789 C   0  0  0  0  0  0  0  0  0  0  0  0
   -9.4180   -4.5870   11.8662 N   0  0  0  0  0  0  0  0  0  0  0  0
   -9.8833   -3.8234   10.8250 C   0  0  0  0  0  0  0  0  0  0  0  0
   -9.3774   -3.0558    9.4108 N   0  0  0  0  0  0  0  0  0  0  0  0
   -8.3743   -3.7162    8.8658 C   0  0  0  0  0  0  0  0  0  0  0  0
   -7.6861   -3.0228    7.7585 C   0  0  0  0  0  0  0  0  0  0  0  0
   -6.9565   -4.0147    7.1965 C   0  0  0  0  0  0  0  0  0  0  0  0
   -8.1343   -5.1144    7.7858 S   0  0  0  0  0  0  0  0  0  0  0  0
   -7.5737   -4.8691    9.9033 C   0  0  0  0  0  0  0  0  0  0  0  0
   -7.3739   -7.6131   14.0612 C   0  0  0  0  0  0  0  0  0  0  0  0
  -10.1941  -13.7814   19.3878 C   0  0  0  0  0  0  0  0  0  0  0  0
   -9.6773  -15.2587   19.5043 C   0  0  0  0  0  0  0  0  0  0  0  0
   -9.8378  -15.7667   20.7699 C   0  0  0  0  0  0  0  0  0  0  0  0
  -10.1795  -14.6837   21.4744 N   0  0  0  0  0  0  0  0  0  0  0  0
  -10.2668  -13.5641   20.7549 N   0  0  0  0  0  0  0  0  0  0  0  0
  -11.9041  -11.9275   16.7125 H   0  0  0  0  0  0  0  0  0  0  0  0
   -9.6609  -10.9414   14.4663 H   0  0  0  0  0  0  0  0  0  0  0  0
  -11.2225   -9.7190   14.6540 H   0  0  0  0  0  0  0  0  0  0  0  0
   -9.1978   -8.9396   13.3327 H   0  0  0  0  0  0  0  0  0  0  0  0
   -9.8750   -5.9422   15.5469 H   0  0  0  0  0  0  0  0  0  0  0  0
  -10.5558   -6.0423   14.0807 H   0  0  0  0  0  0  0  0  0  0  0  0
   -8.7467   -4.2244   14.1099 H   0  0  0  0  0  0  0  0  0  0  0  0
   -7.8074   -5.1512   15.2811 H   0  0  0  0  0  0  0  0  0  0  0  0
  -10.4983   -2.9296   11.1505 H   0  0  0  0  0  0  0  0  0  0  0  0
   -7.8955   -2.0331    7.3780 H   0  0  0  0  0  0  0  0  0  0  0  0
   -6.4323   -4.0383    6.2518 H   0  0  0  0  0  0  0  0  0  0  0  0
   -6.7842   -8.1619   13.3329 H   0  0  0  0  0  0  0  0  0  0  0  0
   -7.0506   -7.2974   15.0515 H   0  0  0  0  0  0  0  0  0  0  0  0
   -9.2507  -15.8604   18.7080 H   0  0  0  0  0  0  0  0  0  0  0  0
   -9.6381  -16.7351   21.2049 H   0  0  0  0  0  0  0  0  0  0  0  0
  -10.3114  -14.6082   22.4769 H   0  0  0  0  0  0  0  0  0  0  0  0
  1  2  2  0
  2  3  1  0
  3  4  1  0
  4  5  1  0
  5  6  1  0
  6  7  1  0
  7  8  1  0
  8  9  1  0
  9 10  2  0
 10 11  1  0
 11 12  2  0
 12 13  1  0
 13 14  1  0
 14 15  2  0
 15 16  1  0
 16 17  1  0
  8 18  1  0
  2 19  1  0
 19 20  1  0
 20 21  2  0
 21 22  1  0
 22 23  1  0
 18  5  1  0
 23 19  2  0
 17  9  1  0
 17 13  2  0
  3 24  1  0
  4 25  1  0
  4 26  1  0
  5 27  1  0
  6 28  1  0
  6 29  1  0
  7 30  1  0
  7 31  1  0
 11 32  1  0
 14 33  1  0
 15 34  1  0
 18 35  1  0
 18 36  1  0
 20 37  1  0
 21 38  1  0
 22 39  1  0
M  END
>  <Energy>  (67) 
1291.0618916404019

>  <compound_id>  (67) 
36388

>  <target_id>  (67) 
1

>  <reference_id>  (67) 
95

>  <inspiration_ids>  (67) 
[95, 96]

>  <energy_score>  (67) 
1214.9576123343968

>  <distance_score>  (67) 
9.99723576588218

>  <path>  (67) 
/opt/xchem-fragalysis-2/maxwin/BulkDock/SCRATCH/511017/C36388-P95/C36388-P95.minimised.mol

>  <scratch_subdir>  (67) 
/opt/xchem-fragalysis-2/maxwin/BulkDock/SCRATCH/511017/C36388-P95

>  <fragmenstein_runtime>  (67) 
17.565060138702393

>  <fragmenstein_outcome>  (67) 
too moved

>  <fragmenstein_mode>  (67) 
expansion

>  <fragmenstein_error>  (67) 


$$$$
C36388-P96
     RDKit          3D

 39 42  0  0  0  0  0  0  0  0999 V2000
   -9.7893  -11.8817   13.2398 O   0  0  0  0  0  0  0  0  0  0  0  0
  -10.2278  -11.7991   12.1601 C   0  0  0  0  0  0  0  0  0  0  0  0
  -10.1113  -10.7443   11.1869 N   0  0  0  0  0  0  0  0  0  0  0  0
   -9.1834   -9.3020   11.1989 C   0  0  0  0  0  0  0  0  0  0  0  0
   -8.0952   -8.8013    9.4998 C   0  0  0  0  0  0  0  0  0  0  0  0
   -8.5621   -9.0041    8.0240 C   0  0  0  0  0  0  0  0  0  0  0  0
   -8.6281   -7.2021    7.3574 C   0  0  0  0  0  0  0  0  0  0  0  0
   -6.7542   -6.7305    7.1596 N   0  0  0  0  0  0  0  0  0  0  0  0
   -6.6383   -5.6079    5.6625 C   0  0  0  0  0  0  0  0  0  0  0  0
   -5.7649   -4.5108    5.5489 N   0  0  0  0  0  0  0  0  0  0  0  0
   -6.1018   -3.2281    5.2412 C   0  0  0  0  0  0  0  0  0  0  0  0
   -7.2699   -2.7577    4.8506 N   0  0  0  0  0  0  0  0  0  0  0  0
   -8.1642   -3.7265    4.5817 C   0  0  0  0  0  0  0  0  0  0  0  0
   -9.4563   -3.3856    4.0719 C   0  0  0  0  0  0  0  0  0  0  0  0
  -10.2193   -4.4829    3.8079 C   0  0  0  0  0  0  0  0  0  0  0  0
   -9.4010   -5.9057    4.2056 S   0  0  0  0  0  0  0  0  0  0  0  0
   -7.9364   -5.1076    4.8130 C   0  0  0  0  0  0  0  0  0  0  0  0
   -7.2140   -7.3198    8.8530 C   0  0  0  0  0  0  0  0  0  0  0  0
  -10.9088  -13.1359   11.7708 C   0  0  0  0  0  0  0  0  0  0  0  0
  -10.6800  -14.3545   12.5879 C   0  0  0  0  0  0  0  0  0  0  0  0
  -11.4273  -15.3931   12.0414 C   0  0  0  0  0  0  0  0  0  0  0  0
  -11.7918  -14.8990   10.8391 N   0  0  0  0  0  0  0  0  0  0  0  0
  -11.4429  -13.6171   10.6360 N   0  0  0  0  0  0  0  0  0  0  0  0
  -10.6834  -10.9635   10.3961 H   0  0  0  0  0  0  0  0  0  0  0  0
   -8.3223   -9.8465   11.6267 H   0  0  0  0  0  0  0  0  0  0  0  0
   -9.3634   -8.7722   12.1410 H   0  0  0  0  0  0  0  0  0  0  0  0
   -7.1879   -9.3914    9.7040 H   0  0  0  0  0  0  0  0  0  0  0  0
   -7.8130   -9.6497    7.5984 H   0  0  0  0  0  0  0  0  0  0  0  0
   -9.4392   -9.5896    7.7803 H   0  0  0  0  0  0  0  0  0  0  0  0
   -9.1630   -6.5201    8.0448 H   0  0  0  0  0  0  0  0  0  0  0  0
   -9.2776   -6.9082    6.5236 H   0  0  0  0  0  0  0  0  0  0  0  0
   -5.3072   -2.4977    5.3432 H   0  0  0  0  0  0  0  0  0  0  0  0
   -9.7791   -2.3701    3.8848 H   0  0  0  0  0  0  0  0  0  0  0  0
  -11.2206   -4.5124    3.4002 H   0  0  0  0  0  0  0  0  0  0  0  0
   -7.1202   -6.4791    9.4853 H   0  0  0  0  0  0  0  0  0  0  0  0
   -6.4808   -8.0506    8.6402 H   0  0  0  0  0  0  0  0  0  0  0  0
  -10.1920  -14.3950   13.5327 H   0  0  0  0  0  0  0  0  0  0  0  0
  -11.6869  -16.3886   12.3728 H   0  0  0  0  0  0  0  0  0  0  0  0
  -12.3007  -15.3733   10.1013 H   0  0  0  0  0  0  0  0  0  0  0  0
  1  2  2  0
  2  3  1  0
  3  4  1  0
  4  5  1  0
  5  6  1  0
  6  7  1  0
  7  8  1  0
  8  9  1  0
  9 10  2  0
 10 11  1  0
 11 12  2  0
 12 13  1  0
 13 14  1  0
 14 15  2  0
 15 16  1  0
 16 17  1  0
  8 18  1  0
  2 19  1  0
 19 20  1  0
 20 21  2  0
 21 22  1  0
 22 23  1  0
 18  5  1  0
 23 19  2  0
 17  9  1  0
 17 13  2  0
  3 24  1  0
  4 25  1  0
  4 26  1  0
  5 27  1  0
  6 28  1  0
  6 29  1  0
  7 30  1  0
  7 31  1  0
 11 32  1  0
 14 33  1  0
 15 34  1  0
 18 35  1  0
 18 36  1  0
 20 37  1  0
 21 38  1  0
 22 39  1  0
M  END
>  <Energy>  (68) 
603.43871267211523

>  <compound_id>  (68) 
36388

>  <target_id>  (68) 
1

>  <reference_id>  (68) 
96

>  <inspiration_ids>  (68) 
[95, 96]

>  <energy_score>  (68) 
527.3344333661212

>  <distance_score>  (68) 
12.48174318413814

>  <path>  (68) 
/opt/xchem-fragalysis-2/maxwin/BulkDock/SCRATCH/511017/C36388-P96/C36388-P96.minimised.mol

>  <scratch_subdir>  (68) 
/opt/xchem-fragalysis-2/maxwin/BulkDock/SCRATCH/511017/C36388-P96

>  <fragmenstein_runtime>  (68) 
15.1314857006073

>  <fragmenstein_outcome>  (68) 
too moved

>  <fragmenstein_mode>  (68) 
expansion

>  <fragmenstein_error>  (68) 


$$$$
C36389-P95
     RDKit          3D

 39 42  0  0  0  0  0  0  0  0999 V2000
   -8.2374  -12.3120   16.8514 O   0  0  0  0  0  0  0  0  0  0  0  0
   -7.4203  -11.6709   17.3957 C   0  0  0  0  0  0  0  0  0  0  0  0
   -6.7175  -10.2495   16.2149 N   0  0  0  0  0  0  0  0  0  0  0  0
   -7.2634   -9.6179   14.2792 C   0  0  0  0  0  0  0  0  0  0  0  0
   -6.5046   -8.1940   12.8251 C   0  0  0  0  0  0  0  0  0  0  0  0
   -4.9055   -8.6369   12.7099 C   0  0  0  0  0  0  0  0  0  0  0  0
   -4.3615   -8.8589   11.3445 C   0  0  0  0  0  0  0  0  0  0  0  0
   -5.1179   -7.9796   10.4264 C   0  0  0  0  0  0  0  0  0  0  0  0
   -6.3262   -7.4592   10.9204 N   0  0  0  0  0  0  0  0  0  0  0  0
   -6.7597   -6.0308    9.6654 C   0  0  0  0  0  0  0  0  0  0  0  0
   -7.6563   -5.0299   10.0525 N   0  0  0  0  0  0  0  0  0  0  0  0
   -8.9267   -4.5212    9.3217 C   0  0  0  0  0  0  0  0  0  0  0  0
   -9.0434   -3.7640    8.2860 N   0  0  0  0  0  0  0  0  0  0  0  0
   -7.8300   -3.8225    7.8080 C   0  0  0  0  0  0  0  0  0  0  0  0
   -7.2764   -2.7380    7.0533 C   0  0  0  0  0  0  0  0  0  0  0  0
   -6.2936   -3.2511    6.2702 C   0  0  0  0  0  0  0  0  0  0  0  0
   -6.8068   -4.8862    6.2245 S   0  0  0  0  0  0  0  0  0  0  0  0
   -6.9747   -4.9750    8.1639 C   0  0  0  0  0  0  0  0  0  0  0  0
   -7.2305  -12.3239   19.1683 C   0  0  0  0  0  0  0  0  0  0  0  0
   -8.5805  -13.3995   19.9241 C   0  0  0  0  0  0  0  0  0  0  0  0
   -8.9939  -12.9361   21.6079 C   0  0  0  0  0  0  0  0  0  0  0  0
   -7.4281  -12.0258   22.0782 N   0  0  0  0  0  0  0  0  0  0  0  0
   -6.4811  -11.9763   20.5249 N   0  0  0  0  0  0  0  0  0  0  0  0
   -6.0964   -9.6911   16.7487 H   0  0  0  0  0  0  0  0  0  0  0  0
   -6.4008  -10.2363   13.9868 H   0  0  0  0  0  0  0  0  0  0  0  0
   -8.2478  -10.0313   14.0339 H   0  0  0  0  0  0  0  0  0  0  0  0
   -6.5200   -7.2408   13.3639 H   0  0  0  0  0  0  0  0  0  0  0  0
   -4.7059   -9.5958   13.1888 H   0  0  0  0  0  0  0  0  0  0  0  0
   -4.2962   -7.8360   13.1324 H   0  0  0  0  0  0  0  0  0  0  0  0
   -4.3401   -9.8964   11.0138 H   0  0  0  0  0  0  0  0  0  0  0  0
   -3.2870   -8.6338   11.3433 H   0  0  0  0  0  0  0  0  0  0  0  0
   -5.4232   -8.5310    9.5446 H   0  0  0  0  0  0  0  0  0  0  0  0
   -4.5094   -7.1082   10.3709 H   0  0  0  0  0  0  0  0  0  0  0  0
   -9.7358   -4.6428   10.0263 H   0  0  0  0  0  0  0  0  0  0  0  0
   -7.6860   -1.7399    6.9869 H   0  0  0  0  0  0  0  0  0  0  0  0
   -5.7089   -2.7783    5.4944 H   0  0  0  0  0  0  0  0  0  0  0  0
   -9.4073  -13.5744   19.2823 H   0  0  0  0  0  0  0  0  0  0  0  0
   -9.8639  -12.6253   22.1807 H   0  0  0  0  0  0  0  0  0  0  0  0
   -7.3318  -11.4145   22.8831 H   0  0  0  0  0  0  0  0  0  0  0  0
  1  2  2  0
  2  3  1  0
  3  4  1  0
  4  5  1  0
  5  6  1  0
  6  7  1  0
  7  8  1  0
  8  9  1  0
  9 10  1  0
 10 11  2  0
 11 12  1  0
 12 13  2  0
 13 14  1  0
 14 15  1  0
 15 16  2  0
 16 17  1  0
 17 18  1  0
  2 19  1  0
 19 20  1  0
 20 21  2  0
 21 22  1  0
 22 23  1  0
  9  5  1  0
 18 10  1  0
 23 19  2  0
 18 14  2  0
  3 24  1  0
  4 25  1  0
  4 26  1  0
  5 27  1  0
  6 28  1  0
  6 29  1  0
  7 30  1  0
  7 31  1  0
  8 32  1  0
  8 33  1  0
 12 34  1  0
 15 35  1  0
 16 36  1  0
 20 37  1  0
 21 38  1  0
 22 39  1  0
M  END
>  <Energy>  (69) 
1314.6327286098604

>  <compound_id>  (69) 
36389

>  <target_id>  (69) 
1

>  <reference_id>  (69) 
95

>  <inspiration_ids>  (69) 
[95, 96]

>  <energy_score>  (69) 
1226.3525108232027

>  <distance_score>  (69) 
10.608170238564014

>  <path>  (69) 
/opt/xchem-fragalysis-2/maxwin/BulkDock/SCRATCH/511017/C36389-P95/C36389-P95.minimised.mol

>  <scratch_subdir>  (69) 
/opt/xchem-fragalysis-2/maxwin/BulkDock/SCRATCH/511017/C36389-P95

>  <fragmenstein_runtime>  (69) 
23.416688203811646

>  <fragmenstein_outcome>  (69) 
too moved

>  <fragmenstein_mode>  (69) 
expansion

>  <fragmenstein_error>  (69) 


$$$$
C36389-P96
     RDKit          3D

 39 42  0  0  0  0  0  0  0  0999 V2000
  -16.7701   -3.5917   11.4408 O   0  0  0  0  0  0  0  0  0  0  0  0
  -15.7030   -4.0033   11.0858 C   0  0  0  0  0  0  0  0  0  0  0  0
  -14.8031   -3.5291   10.0328 N   0  0  0  0  0  0  0  0  0  0  0  0
  -14.8856   -2.3200    9.1336 C   0  0  0  0  0  0  0  0  0  0  0  0
  -14.4196   -2.4840    7.6589 C   0  0  0  0  0  0  0  0  0  0  0  0
  -12.9415   -2.7051    7.3835 C   0  0  0  0  0  0  0  0  0  0  0  0
  -12.8545   -2.8101    5.8568 C   0  0  0  0  0  0  0  0  0  0  0  0
  -14.1478   -2.1329    5.3851 C   0  0  0  0  0  0  0  0  0  0  0  0
  -14.6823   -1.4601    6.5897 N   0  0  0  0  0  0  0  0  0  0  0  0
  -14.2127   -0.1568    6.8765 C   0  0  0  0  0  0  0  0  0  0  0  0
  -14.6675    0.3666    8.0466 N   0  0  0  0  0  0  0  0  0  0  0  0
  -14.3800    1.6255    8.3939 C   0  0  0  0  0  0  0  0  0  0  0  0
  -13.6399    2.4957    7.7199 N   0  0  0  0  0  0  0  0  0  0  0  0
  -13.1267    2.0066    6.5675 C   0  0  0  0  0  0  0  0  0  0  0  0
  -12.3047    2.7838    5.6955 C   0  0  0  0  0  0  0  0  0  0  0  0
  -11.8823    2.0745    4.6014 C   0  0  0  0  0  0  0  0  0  0  0  0
  -12.4867    0.4908    4.6232 S   0  0  0  0  0  0  0  0  0  0  0  0
  -13.3672    0.7053    6.1078 C   0  0  0  0  0  0  0  0  0  0  0  0
  -15.1698   -5.2115   11.9285 C   0  0  0  0  0  0  0  0  0  0  0  0
  -13.9209   -5.9137   11.9135 C   0  0  0  0  0  0  0  0  0  0  0  0
  -14.0007   -6.8847   12.8880 C   0  0  0  0  0  0  0  0  0  0  0  0
  -15.2178   -6.7511   13.4627 N   0  0  0  0  0  0  0  0  0  0  0  0
  -15.9441   -5.7729   12.9031 N   0  0  0  0  0  0  0  0  0  0  0  0
  -13.9463   -4.0646   10.0642 H   0  0  0  0  0  0  0  0  0  0  0  0
  -15.9366   -2.0089    9.1465 H   0  0  0  0  0  0  0  0  0  0  0  0
  -14.3233   -1.5370    9.6445 H   0  0  0  0  0  0  0  0  0  0  0  0
  -14.9827   -3.3693    7.3343 H   0  0  0  0  0  0  0  0  0  0  0  0
  -12.3338   -1.8469    7.6745 H   0  0  0  0  0  0  0  0  0  0  0  0
  -12.5864   -3.5646    7.9191 H   0  0  0  0  0  0  0  0  0  0  0  0
  -12.8121   -3.8437    5.5018 H   0  0  0  0  0  0  0  0  0  0  0  0
  -11.9553   -2.3088    5.4880 H   0  0  0  0  0  0  0  0  0  0  0  0
  -14.8640   -2.9183    5.1029 H   0  0  0  0  0  0  0  0  0  0  0  0
  -14.0723   -1.5239    4.4864 H   0  0  0  0  0  0  0  0  0  0  0  0
  -14.8022    1.9718    9.3315 H   0  0  0  0  0  0  0  0  0  0  0  0
  -12.0304    3.8124    5.8904 H   0  0  0  0  0  0  0  0  0  0  0  0
  -11.2478    2.4176    3.7960 H   0  0  0  0  0  0  0  0  0  0  0  0
  -13.0722   -5.7383   11.2677 H   0  0  0  0  0  0  0  0  0  0  0  0
  -13.3135   -7.6430   13.1943 H   0  0  0  0  0  0  0  0  0  0  0  0
  -15.6315   -7.2888   14.2187 H   0  0  0  0  0  0  0  0  0  0  0  0
  1  2  2  0
  2  3  1  0
  3  4  1  0
  4  5  1  0
  5  6  1  0
  6  7  1  0
  7  8  1  0
  8  9  1  0
  9 10  1  0
 10 11  2  0
 11 12  1  0
 12 13  2  0
 13 14  1  0
 14 15  1  0
 15 16  2  0
 16 17  1  0
 17 18  1  0
  2 19  1  0
 19 20  1  0
 20 21  2  0
 21 22  1  0
 22 23  1  0
  9  5  1  0
 18 10  1  0
 23 19  2  0
 18 14  2  0
  3 24  1  0
  4 25  1  0
  4 26  1  0
  5 27  1  0
  6 28  1  0
  6 29  1  0
  7 30  1  0
  7 31  1  0
  8 32  1  0
  8 33  1  0
 12 34  1  0
 15 35  1  0
 16 36  1  0
 20 37  1  0
 21 38  1  0
 22 39  1  0
M  END
>  <Energy>  (70) 
79.667665474049286

>  <compound_id>  (70) 
36389

>  <target_id>  (70) 
1

>  <reference_id>  (70) 
96

>  <inspiration_ids>  (70) 
[95, 96]

>  <energy_score>  (70) 
-8.612552312608386

>  <distance_score>  (70) 
15.509189107991148

>  <path>  (70) 
/opt/xchem-fragalysis-2/maxwin/BulkDock/SCRATCH/511017/C36389-P96/C36389-P96.minimised.mol

>  <scratch_subdir>  (70) 
/opt/xchem-fragalysis-2/maxwin/BulkDock/SCRATCH/511017/C36389-P96

>  <fragmenstein_runtime>  (70) 
23.164052724838257

>  <fragmenstein_outcome>  (70) 
too moved

>  <fragmenstein_mode>  (70) 
expansion

>  <fragmenstein_error>  (70) 


$$$$
C36391-P95
     RDKit          3D

 42 45  0  0  0  0  0  0  0  0999 V2000
   -8.3387  -17.2767   13.6235 O   0  0  0  0  0  0  0  0  0  0  0  0
   -7.7627  -16.5353   14.4035 C   0  0  0  0  0  0  0  0  0  0  0  0
   -7.9068  -14.9560   14.6262 N   0  0  0  0  0  0  0  0  0  0  0  0
   -9.0482  -13.7604   13.8958 C   0  0  0  0  0  0  0  0  0  0  0  0
   -8.6297  -12.3603   13.0938 C   0  0  0  0  0  0  0  0  0  0  0  0
   -8.8186  -10.6789   13.7317 C   0  0  0  0  0  0  0  0  0  0  0  0
   -9.9296   -9.6962   13.4324 C   0  0  0  0  0  0  0  0  0  0  0  0
   -9.8643   -9.5880   11.9140 C   0  0  0  0  0  0  0  0  0  0  0  0
   -8.5239   -8.9706   11.5587 N   0  0  0  0  0  0  0  0  0  0  0  0
   -7.5483   -8.3370   10.1505 C   0  0  0  0  0  0  0  0  0  0  0  0
   -6.1612   -8.3831   10.3669 N   0  0  0  0  0  0  0  0  0  0  0  0
   -5.5165   -7.3649   10.7263 C   0  0  0  0  0  0  0  0  0  0  0  0
   -5.8889   -6.2028   10.3144 N   0  0  0  0  0  0  0  0  0  0  0  0
   -6.8468   -5.9391    9.2969 C   0  0  0  0  0  0  0  0  0  0  0  0
   -6.9160   -4.6774    8.0282 C   0  0  0  0  0  0  0  0  0  0  0  0
   -7.4120   -5.0006    6.7997 C   0  0  0  0  0  0  0  0  0  0  0  0
   -8.6646   -5.6708    7.5790 S   0  0  0  0  0  0  0  0  0  0  0  0
   -7.4720   -7.3919    8.6795 C   0  0  0  0  0  0  0  0  0  0  0  0
   -7.8800   -9.4031   13.2313 C   0  0  0  0  0  0  0  0  0  0  0  0
   -6.8656  -17.2992   15.3564 C   0  0  0  0  0  0  0  0  0  0  0  0
   -6.8204  -18.7423   15.4189 C   0  0  0  0  0  0  0  0  0  0  0  0
   -6.2407  -19.0762   16.6173 C   0  0  0  0  0  0  0  0  0  0  0  0
   -5.9307  -17.8897   17.1912 N   0  0  0  0  0  0  0  0  0  0  0  0
   -6.3114  -16.8068   16.4727 N   0  0  0  0  0  0  0  0  0  0  0  0
   -7.3357  -14.6740   15.4150 H   0  0  0  0  0  0  0  0  0  0  0  0
   -9.5826  -13.3097   14.6878 H   0  0  0  0  0  0  0  0  0  0  0  0
   -9.8454  -14.3093   13.3690 H   0  0  0  0  0  0  0  0  0  0  0  0
   -9.2090  -12.4163   12.1709 H   0  0  0  0  0  0  0  0  0  0  0  0
   -7.5836  -12.5416   12.8374 H   0  0  0  0  0  0  0  0  0  0  0  0
   -8.6812  -10.8364   14.7654 H   0  0  0  0  0  0  0  0  0  0  0  0
   -9.6638   -8.8566   14.0688 H   0  0  0  0  0  0  0  0  0  0  0  0
  -10.9369   -9.5512   13.7976 H   0  0  0  0  0  0  0  0  0  0  0  0
  -10.0779  -10.6656   11.9730 H   0  0  0  0  0  0  0  0  0  0  0  0
  -10.5683   -9.4501   11.1131 H   0  0  0  0  0  0  0  0  0  0  0  0
   -4.6534   -7.5568   11.3216 H   0  0  0  0  0  0  0  0  0  0  0  0
   -6.1357   -3.9342    7.8472 H   0  0  0  0  0  0  0  0  0  0  0  0
   -7.3455   -4.4443    5.8752 H   0  0  0  0  0  0  0  0  0  0  0  0
   -7.9445   -8.5235   13.8498 H   0  0  0  0  0  0  0  0  0  0  0  0
   -6.8225   -9.6570   13.3946 H   0  0  0  0  0  0  0  0  0  0  0  0
   -7.2513  -19.4224   14.6953 H   0  0  0  0  0  0  0  0  0  0  0  0
   -6.0320  -20.0254   17.0895 H   0  0  0  0  0  0  0  0  0  0  0  0
   -5.4649  -17.7405   18.0793 H   0  0  0  0  0  0  0  0  0  0  0  0
  1  2  2  0
  2  3  1  0
  3  4  1  0
  4  5  1  0
  5  6  1  0
  6  7  1  0
  7  8  1  0
  8  9  1  0
  9 10  1  0
 10 11  2  0
 11 12  1  0
 12 13  2  0
 13 14  1  0
 14 15  1  0
 15 16  2  0
 16 17  1  0
 17 18  1  0
  9 19  1  0
  2 20  1  0
 20 21  1  0
 21 22  2  0
 22 23  1  0
 23 24  1  0
 19  6  1  0
 24 20  2  0
 18 10  1  0
 18 14  2  0
  3 25  1  0
  4 26  1  0
  4 27  1  0
  5 28  1  0
  5 29  1  0
  6 30  1  0
  7 31  1  0
  7 32  1  0
  8 33  1  0
  8 34  1  0
 12 35  1  0
 15 36  1  0
 16 37  1  0
 19 38  1  0
 19 39  1  0
 21 40  1  0
 22 41  1  0
 23 42  1  0
M  END
>  <Energy>  (71) 
658.57368905494138

>  <compound_id>  (71) 
36391

>  <target_id>  (71) 
1

>  <reference_id>  (71) 
95

>  <inspiration_ids>  (71) 
[95, 96]

>  <energy_score>  (71) 
585.2375474202095

>  <distance_score>  (71) 
11.308360663732806

>  <path>  (71) 
/opt/xchem-fragalysis-2/maxwin/BulkDock/SCRATCH/511017/C36391-P95/C36391-P95.minimised.mol

>  <scratch_subdir>  (71) 
/opt/xchem-fragalysis-2/maxwin/BulkDock/SCRATCH/511017/C36391-P95

>  <fragmenstein_runtime>  (71) 
46.126070499420166

>  <fragmenstein_outcome>  (71) 
too moved

>  <fragmenstein_mode>  (71) 
expansion

>  <fragmenstein_error>  (71) 


$$$$
C36391-P96
     RDKit          3D

 42 45  0  0  0  0  0  0  0  0999 V2000
   -7.8493  -13.9451   11.3425 O   0  0  0  0  0  0  0  0  0  0  0  0
   -8.6545  -13.8952   12.2525 C   0  0  0  0  0  0  0  0  0  0  0  0
   -9.8154  -12.6993   12.5630 N   0  0  0  0  0  0  0  0  0  0  0  0
  -10.1037  -11.2165   11.8057 C   0  0  0  0  0  0  0  0  0  0  0  0
   -9.1362   -9.5800   11.3324 C   0  0  0  0  0  0  0  0  0  0  0  0
   -8.2321   -8.9089    9.5425 C   0  0  0  0  0  0  0  0  0  0  0  0
   -7.7784   -7.3782    8.9755 C   0  0  0  0  0  0  0  0  0  0  0  0
   -9.1848   -6.4745    8.0720 C   0  0  0  0  0  0  0  0  0  0  0  0
   -9.2456   -7.4023    7.0701 N   0  0  0  0  0  0  0  0  0  0  0  0
  -10.0599   -6.7479    5.8703 C   0  0  0  0  0  0  0  0  0  0  0  0
  -10.4786   -5.4435    5.9747 N   0  0  0  0  0  0  0  0  0  0  0  0
  -11.1420   -4.7901    5.0166 C   0  0  0  0  0  0  0  0  0  0  0  0
  -11.4723   -5.2601    3.8278 N   0  0  0  0  0  0  0  0  0  0  0  0
  -11.1784   -6.5679    3.6757 C   0  0  0  0  0  0  0  0  0  0  0  0
  -11.5044   -7.2869    2.4898 C   0  0  0  0  0  0  0  0  0  0  0  0
  -11.1871   -8.6143    2.5856 C   0  0  0  0  0  0  0  0  0  0  0  0
  -10.5513   -9.0029    4.1144 S   0  0  0  0  0  0  0  0  0  0  0  0
  -10.5457   -7.3516    4.6519 C   0  0  0  0  0  0  0  0  0  0  0  0
   -8.8615   -9.1032    7.7729 C   0  0  0  0  0  0  0  0  0  0  0  0
   -8.6360  -15.2418   13.7562 C   0  0  0  0  0  0  0  0  0  0  0  0
   -8.0547  -16.9870   13.7844 C   0  0  0  0  0  0  0  0  0  0  0  0
   -7.7161  -17.4559   15.0106 C   0  0  0  0  0  0  0  0  0  0  0  0
   -8.0472  -16.3848   15.7079 N   0  0  0  0  0  0  0  0  0  0  0  0
   -7.9960  -15.1251   15.0614 N   0  0  0  0  0  0  0  0  0  0  0  0
  -10.3915  -12.9832   13.3487 H   0  0  0  0  0  0  0  0  0  0  0  0
  -10.9245  -11.3886   11.1068 H   0  0  0  0  0  0  0  0  0  0  0  0
  -10.6613  -10.7626   12.6383 H   0  0  0  0  0  0  0  0  0  0  0  0
   -9.2938   -8.8940   12.1528 H   0  0  0  0  0  0  0  0  0  0  0  0
  -10.0590   -9.6879   10.8205 H   0  0  0  0  0  0  0  0  0  0  0  0
   -7.2311   -9.3720    9.5653 H   0  0  0  0  0  0  0  0  0  0  0  0
   -7.3040   -6.6337    9.5500 H   0  0  0  0  0  0  0  0  0  0  0  0
   -6.9842   -7.5440    8.2608 H   0  0  0  0  0  0  0  0  0  0  0  0
  -10.2566   -6.5490    8.0508 H   0  0  0  0  0  0  0  0  0  0  0  0
   -9.4108   -6.1957    9.1250 H   0  0  0  0  0  0  0  0  0  0  0  0
  -11.4237   -3.7677    5.2410 H   0  0  0  0  0  0  0  0  0  0  0  0
  -11.9660   -6.8368    1.6208 H   0  0  0  0  0  0  0  0  0  0  0  0
  -11.3323   -9.3855    1.8418 H   0  0  0  0  0  0  0  0  0  0  0  0
   -9.7096   -9.7673    7.6779 H   0  0  0  0  0  0  0  0  0  0  0  0
   -8.1609   -9.6739    7.1749 H   0  0  0  0  0  0  0  0  0  0  0  0
   -7.9187  -17.5965   12.8954 H   0  0  0  0  0  0  0  0  0  0  0  0
   -7.4305  -18.4207   15.4016 H   0  0  0  0  0  0  0  0  0  0  0  0
   -8.4073  -16.4086   16.6537 H   0  0  0  0  0  0  0  0  0  0  0  0
  1  2  2  0
  2  3  1  0
  3  4  1  0
  4  5  1  0
  5  6  1  0
  6  7  1  0
  7  8  1  0
  8  9  1  0
  9 10  1  0
 10 11  2  0
 11 12  1  0
 12 13  2  0
 13 14  1  0
 14 15  1  0
 15 16  2  0
 16 17  1  0
 17 18  1  0
  9 19  1  0
  2 20  1  0
 20 21  1  0
 21 22  2  0
 22 23  1  0
 23 24  1  0
 19  6  1  0
 24 20  2  0
 18 10  1  0
 18 14  2  0
  3 25  1  0
  4 26  1  0
  4 27  1  0
  5 28  1  0
  5 29  1  0
  6 30  1  0
  7 31  1  0
  7 32  1  0
  8 33  1  0
  8 34  1  0
 12 35  1  0
 15 36  1  0
 16 37  1  0
 19 38  1  0
 19 39  1  0
 21 40  1  0
 22 41  1  0
 23 42  1  0
M  END
>  <Energy>  (72) 
661.10856992014783

>  <compound_id>  (72) 
36391

>  <target_id>  (72) 
1

>  <reference_id>  (72) 
96

>  <inspiration_ids>  (72) 
[95, 96]

>  <energy_score>  (72) 
587.7724282854017

>  <distance_score>  (72) 
11.411461746102498

>  <path>  (72) 
/opt/xchem-fragalysis-2/maxwin/BulkDock/SCRATCH/511017/C36391-P96/C36391-P96.minimised.mol

>  <scratch_subdir>  (72) 
/opt/xchem-fragalysis-2/maxwin/BulkDock/SCRATCH/511017/C36391-P96

>  <fragmenstein_runtime>  (72) 
24.623252630233765

>  <fragmenstein_outcome>  (72) 
too moved

>  <fragmenstein_mode>  (72) 
expansion

>  <fragmenstein_error>  (72) 


$$$$
C36392-P95
     RDKit          3D

 49 50  0  0  0  0  0  0  0  0999 V2000
   -6.7458  -12.9889   26.9504 C   0  0  0  0  0  0  0  0  0  0  0  0
   -6.4948  -11.6543   26.2098 C   0  0  0  0  0  0  0  0  0  0  0  0
   -7.6455  -10.7499   26.7429 C   0  0  0  0  0  0  0  0  0  0  0  0
   -5.1975  -11.0180   26.7920 C   0  0  0  0  0  0  0  0  0  0  0  0
   -6.4339  -11.4648   24.5565 C   0  0  0  0  0  0  0  0  0  0  0  0
   -6.2546  -12.5359   23.1599 C   0  0  0  0  0  0  0  0  0  0  0  0
   -5.6600  -13.5799   23.3065 O   0  0  0  0  0  0  0  0  0  0  0  0
   -6.8232  -11.8709   21.8951 N   0  0  0  0  0  0  0  0  0  0  0  0
   -6.7074  -12.3483   19.9430 C   0  0  0  0  0  0  0  0  0  0  0  0
   -7.7559  -12.1172   18.3996 C   0  0  0  0  0  0  0  0  0  0  0  0
   -8.9067  -12.4467   18.5439 O   0  0  0  0  0  0  0  0  0  0  0  0
   -7.0877  -11.4803   17.2518 N   0  0  0  0  0  0  0  0  0  0  0  0
   -6.5337  -12.5216   16.3128 C   0  0  0  0  0  0  0  0  0  0  0  0
   -5.7790  -11.8980   15.1324 C   0  0  0  0  0  0  0  0  0  0  0  0
   -6.6496  -10.7254   14.8648 C   0  0  0  0  0  0  0  0  0  0  0  0
   -7.2953  -10.7433   13.5772 N   0  0  0  0  0  0  0  0  0  0  0  0
   -6.9226  -10.1522   12.3357 C   0  0  0  0  0  0  0  0  0  0  0  0
   -6.0174   -9.4226   12.0586 O   0  0  0  0  0  0  0  0  0  0  0  0
   -7.9240  -10.5515   11.3109 C   0  0  0  0  0  0  0  0  0  0  0  0
   -8.0680  -10.0632    9.9851 C   0  0  0  0  0  0  0  0  0  0  0  0
   -9.1712  -10.7122    9.4843 C   0  0  0  0  0  0  0  0  0  0  0  0
   -9.6132  -11.5333   10.4750 N   0  0  0  0  0  0  0  0  0  0  0  0
   -8.8755  -11.4731   11.5946 N   0  0  0  0  0  0  0  0  0  0  0  0
   -7.6465  -10.9526   15.9751 C   0  0  0  0  0  0  0  0  0  0  0  0
   -7.6865  -12.9833   27.5181 H   0  0  0  0  0  0  0  0  0  0  0  0
   -5.9822  -13.1816   27.7118 H   0  0  0  0  0  0  0  0  0  0  0  0
   -6.8209  -13.8590   26.3085 H   0  0  0  0  0  0  0  0  0  0  0  0
   -7.6522  -10.7010   27.8390 H   0  0  0  0  0  0  0  0  0  0  0  0
   -7.5292   -9.7207   26.3823 H   0  0  0  0  0  0  0  0  0  0  0  0
   -8.6321  -11.0941   26.4187 H   0  0  0  0  0  0  0  0  0  0  0  0
   -5.2218  -10.9883   27.8880 H   0  0  0  0  0  0  0  0  0  0  0  0
   -4.3027  -11.5731   26.4990 H   0  0  0  0  0  0  0  0  0  0  0  0
   -5.0740   -9.9843   26.4477 H   0  0  0  0  0  0  0  0  0  0  0  0
   -7.1208  -10.6531   24.2777 H   0  0  0  0  0  0  0  0  0  0  0  0
   -5.4701  -10.9418   24.4241 H   0  0  0  0  0  0  0  0  0  0  0  0
   -7.3228  -11.0660   22.1493 H   0  0  0  0  0  0  0  0  0  0  0  0
   -7.1472  -13.3455   19.9044 H   0  0  0  0  0  0  0  0  0  0  0  0
   -5.6848  -12.1265   19.5843 H   0  0  0  0  0  0  0  0  0  0  0  0
   -7.2859  -13.2399   15.9807 H   0  0  0  0  0  0  0  0  0  0  0  0
   -5.7969  -13.0937   16.8673 H   0  0  0  0  0  0  0  0  0  0  0  0
   -5.6662  -12.6001   14.3009 H   0  0  0  0  0  0  0  0  0  0  0  0
   -4.7820  -11.5742   15.4532 H   0  0  0  0  0  0  0  0  0  0  0  0
   -6.0940   -9.7880   14.9733 H   0  0  0  0  0  0  0  0  0  0  0  0
   -8.0798  -11.3803   13.4191 H   0  0  0  0  0  0  0  0  0  0  0  0
   -7.4538   -9.3175    9.4999 H   0  0  0  0  0  0  0  0  0  0  0  0
   -9.6862  -10.6550    8.5366 H   0  0  0  0  0  0  0  0  0  0  0  0
  -10.4122  -12.1590   10.4559 H   0  0  0  0  0  0  0  0  0  0  0  0
   -8.5358  -11.5279   15.6717 H   0  0  0  0  0  0  0  0  0  0  0  0
   -8.0809   -9.9801   16.2488 H   0  0  0  0  0  0  0  0  0  0  0  0
  1  2  1  0
  2  3  1  0
  2  4  1  0
  2  5  1  0
  5  6  1  0
  6  7  2  0
  6  8  1  0
  8  9  1  0
  9 10  1  0
 10 11  2  0
 10 12  1  0
 12 13  1  0
 13 14  1  0
 14 15  1  0
 15 16  1  0
 16 17  1  0
 17 18  2  0
 17 19  1  0
 19 20  1  0
 20 21  2  0
 21 22  1  0
 22 23  1  0
 15 24  1  0
 24 12  1  0
 23 19  2  0
  1 25  1  0
  1 26  1  0
  1 27  1  0
  3 28  1  0
  3 29  1  0
  3 30  1  0
  4 31  1  0
  4 32  1  0
  4 33  1  0
  5 34  1  0
  5 35  1  0
  8 36  1  0
  9 37  1  0
  9 38  1  0
 13 39  1  0
 13 40  1  0
 14 41  1  0
 14 42  1  0
 15 43  1  0
 16 44  1  0
 20 45  1  0
 21 46  1  0
 22 47  1  0
 24 48  1  0
 24 49  1  0
M  END
>  <Energy>  (73) 
298.18607456257519

>  <compound_id>  (73) 
36392

>  <target_id>  (73) 
1

>  <reference_id>  (73) 
95

>  <inspiration_ids>  (73) 
[95, 96]

>  <energy_score>  (73) 
197.21987076835114

>  <distance_score>  (73) 
14.069400270479166

>  <path>  (73) 
/opt/xchem-fragalysis-2/maxwin/BulkDock/SCRATCH/511017/C36392-P95/C36392-P95.minimised.mol

>  <scratch_subdir>  (73) 
/opt/xchem-fragalysis-2/maxwin/BulkDock/SCRATCH/511017/C36392-P95

>  <fragmenstein_runtime>  (73) 
65.40367770195007

>  <fragmenstein_outcome>  (73) 
too moved

>  <fragmenstein_mode>  (73) 
expansion

>  <fragmenstein_error>  (73) 


$$$$
C36392-P96
     RDKit          3D

 49 50  0  0  0  0  0  0  0  0999 V2000
   -1.6964  -15.7597   16.0575 C   0  0  0  0  0  0  0  0  0  0  0  0
   -3.0898  -16.1902   15.5702 C   0  0  0  0  0  0  0  0  0  0  0  0
   -3.8432  -16.8758   16.7759 C   0  0  0  0  0  0  0  0  0  0  0  0
   -2.8675  -17.3130   14.5189 C   0  0  0  0  0  0  0  0  0  0  0  0
   -3.8510  -14.9797   14.7383 C   0  0  0  0  0  0  0  0  0  0  0  0
   -3.4280  -13.4228   14.8205 C   0  0  0  0  0  0  0  0  0  0  0  0
   -2.6047  -13.0977   15.6285 O   0  0  0  0  0  0  0  0  0  0  0  0
   -4.1890  -12.6168   13.8524 N   0  0  0  0  0  0  0  0  0  0  0  0
   -4.2472  -11.1255   13.6395 C   0  0  0  0  0  0  0  0  0  0  0  0
   -4.6567  -10.6029   12.1824 C   0  0  0  0  0  0  0  0  0  0  0  0
   -3.9474  -10.8750   11.2482 O   0  0  0  0  0  0  0  0  0  0  0  0
   -5.9444   -9.9258   12.2256 N   0  0  0  0  0  0  0  0  0  0  0  0
   -5.6944   -8.1609   12.4456 C   0  0  0  0  0  0  0  0  0  0  0  0
   -5.8698   -6.7014   11.1021 C   0  0  0  0  0  0  0  0  0  0  0  0
   -7.0124   -7.9742    9.8148 C   0  0  0  0  0  0  0  0  0  0  0  0
   -7.9171   -8.1683    8.3935 N   0  0  0  0  0  0  0  0  0  0  0  0
   -9.1227   -7.0578    7.5069 C   0  0  0  0  0  0  0  0  0  0  0  0
   -9.3142   -6.1339    8.1090 O   0  0  0  0  0  0  0  0  0  0  0  0
   -9.9741   -6.9089    5.9136 C   0  0  0  0  0  0  0  0  0  0  0  0
  -10.5870   -5.6562    5.4925 C   0  0  0  0  0  0  0  0  0  0  0  0
  -11.1844   -5.8669    4.2769 C   0  0  0  0  0  0  0  0  0  0  0  0
  -11.0095   -7.1795    4.0159 N   0  0  0  0  0  0  0  0  0  0  0  0
  -10.3902   -7.8528    4.9910 N   0  0  0  0  0  0  0  0  0  0  0  0
   -6.9318   -9.4209   11.0046 C   0  0  0  0  0  0  0  0  0  0  0  0
   -1.1103  -15.3114   15.2481 H   0  0  0  0  0  0  0  0  0  0  0  0
   -1.1287  -16.6187   16.4348 H   0  0  0  0  0  0  0  0  0  0  0  0
   -1.7652  -15.0406   16.8797 H   0  0  0  0  0  0  0  0  0  0  0  0
   -3.5658  -17.9323   16.8672 H   0  0  0  0  0  0  0  0  0  0  0  0
   -3.5828  -16.4187   17.7353 H   0  0  0  0  0  0  0  0  0  0  0  0
   -4.9227  -16.8280   16.6310 H   0  0  0  0  0  0  0  0  0  0  0  0
   -2.2666  -16.9539   13.6752 H   0  0  0  0  0  0  0  0  0  0  0  0
   -3.8236  -17.6718   14.1236 H   0  0  0  0  0  0  0  0  0  0  0  0
   -2.3380  -18.1712   14.9486 H   0  0  0  0  0  0  0  0  0  0  0  0
   -4.9245  -15.0381   14.9581 H   0  0  0  0  0  0  0  0  0  0  0  0
   -3.7556  -15.2115   13.6678 H   0  0  0  0  0  0  0  0  0  0  0  0
   -4.8616  -13.2107   13.3820 H   0  0  0  0  0  0  0  0  0  0  0  0
   -3.2634  -10.7153   13.8889 H   0  0  0  0  0  0  0  0  0  0  0  0
   -4.9628  -10.7449   14.3759 H   0  0  0  0  0  0  0  0  0  0  0  0
   -6.2182   -7.9176   13.3790 H   0  0  0  0  0  0  0  0  0  0  0  0
   -4.6348   -8.0960   12.7568 H   0  0  0  0  0  0  0  0  0  0  0  0
   -4.8135   -6.3103   11.0376 H   0  0  0  0  0  0  0  0  0  0  0  0
   -6.2736   -5.8477   11.6584 H   0  0  0  0  0  0  0  0  0  0  0  0
   -6.4340   -8.6268    9.1927 H   0  0  0  0  0  0  0  0  0  0  0  0
   -7.8451   -9.0336    7.8653 H   0  0  0  0  0  0  0  0  0  0  0  0
  -10.6139   -4.7169    6.0227 H   0  0  0  0  0  0  0  0  0  0  0  0
  -11.7351   -5.2124    3.6173 H   0  0  0  0  0  0  0  0  0  0  0  0
  -11.3334   -7.7011    3.2086 H   0  0  0  0  0  0  0  0  0  0  0  0
   -6.8291  -10.2709   10.3110 H   0  0  0  0  0  0  0  0  0  0  0  0
   -7.9446   -9.5926   11.4022 H   0  0  0  0  0  0  0  0  0  0  0  0
  1  2  1  0
  2  3  1  0
  2  4  1  0
  2  5  1  0
  5  6  1  0
  6  7  2  0
  6  8  1  0
  8  9  1  0
  9 10  1  0
 10 11  2  0
 10 12  1  0
 12 13  1  0
 13 14  1  0
 14 15  1  0
 15 16  1  0
 16 17  1  0
 17 18  2  0
 17 19  1  0
 19 20  1  0
 20 21  2  0
 21 22  1  0
 22 23  1  0
 15 24  1  0
 24 12  1  0
 23 19  2  0
  1 25  1  0
  1 26  1  0
  1 27  1  0
  3 28  1  0
  3 29  1  0
  3 30  1  0
  4 31  1  0
  4 32  1  0
  4 33  1  0
  5 34  1  0
  5 35  1  0
  8 36  1  0
  9 37  1  0
  9 38  1  0
 13 39  1  0
 13 40  1  0
 14 41  1  0
 14 42  1  0
 15 43  1  0
 16 44  1  0
 20 45  1  0
 21 46  1  0
 22 47  1  0
 24 48  1  0
 24 49  1  0
M  END
>  <Energy>  (74) 
597.47611894958436

>  <compound_id>  (74) 
36392

>  <target_id>  (74) 
1

>  <reference_id>  (74) 
96

>  <inspiration_ids>  (74) 
[95, 96]

>  <energy_score>  (74) 
496.5099151553569

>  <distance_score>  (74) 
13.303141861489891

>  <path>  (74) 
/opt/xchem-fragalysis-2/maxwin/BulkDock/SCRATCH/511017/C36392-P96/C36392-P96.minimised.mol

>  <scratch_subdir>  (74) 
/opt/xchem-fragalysis-2/maxwin/BulkDock/SCRATCH/511017/C36392-P96

>  <fragmenstein_runtime>  (74) 
52.44068670272827

>  <fragmenstein_outcome>  (74) 
too moved

>  <fragmenstein_mode>  (74) 
expansion

>  <fragmenstein_error>  (74) 


$$$$
C36399-P95
     RDKit          3D

 44 47  0  0  0  0  0  0  0  0999 V2000
  -13.8436  -20.2865   14.9243 O   0  0  0  0  0  0  0  0  0  0  0  0
  -13.4033  -19.3402   15.3849 C   0  0  0  0  0  0  0  0  0  0  0  0
  -13.3515  -17.9594   14.8646 N   0  0  0  0  0  0  0  0  0  0  0  0
  -13.9320  -17.3753   13.6536 C   0  0  0  0  0  0  0  0  0  0  0  0
  -13.1019  -16.4081   12.7932 C   0  0  0  0  0  0  0  0  0  0  0  0
  -13.2578  -16.1994   11.3839 C   0  0  0  0  0  0  0  0  0  0  0  0
  -12.3543  -15.2254   11.0322 C   0  0  0  0  0  0  0  0  0  0  0  0
  -11.7062  -14.9156   12.1860 N   0  0  0  0  0  0  0  0  0  0  0  0
  -12.1972  -15.5401   13.2683 N   0  0  0  0  0  0  0  0  0  0  0  0
  -12.5427  -19.0711   16.8157 N   0  0  0  0  0  0  0  0  0  0  0  0
  -12.1381  -20.0430   17.5817 C   0  0  0  0  0  0  0  0  0  0  0  0
  -11.5413  -21.4430   16.8902 C   0  0  0  0  0  0  0  0  0  0  0  0
  -11.6365  -21.7546   18.2846 C   0  0  0  0  0  0  0  0  0  0  0  0
  -12.0495  -20.1665   18.3975 C   0  0  0  0  0  0  0  0  0  0  0  0
  -13.1487  -20.0693   19.7170 C   0  0  0  0  0  0  0  0  0  0  0  0
  -14.4069  -19.4882   19.5317 C   0  0  0  0  0  0  0  0  0  0  0  0
  -15.3727  -19.5723   20.5373 C   0  0  0  0  0  0  0  0  0  0  0  0
  -15.1212  -20.2754   21.7093 C   0  0  0  0  0  0  0  0  0  0  0  0
  -13.8701  -20.8414   21.9219 C   0  0  0  0  0  0  0  0  0  0  0  0
  -13.6695  -21.5578   23.0904 C   0  0  0  0  0  0  0  0  0  0  0  0
  -12.4047  -21.9964   23.4249 C   0  0  0  0  0  0  0  0  0  0  0  0
  -11.3478  -21.7555   22.5594 C   0  0  0  0  0  0  0  0  0  0  0  0
  -11.5561  -21.1370   21.3337 C   0  0  0  0  0  0  0  0  0  0  0  0
  -12.8310  -20.6837   20.9686 C   0  0  0  0  0  0  0  0  0  0  0  0
  -12.9569  -17.3434   15.5775 H   0  0  0  0  0  0  0  0  0  0  0  0
  -14.8309  -16.8395   13.9798 H   0  0  0  0  0  0  0  0  0  0  0  0
  -14.2626  -18.2095   13.0241 H   0  0  0  0  0  0  0  0  0  0  0  0
  -13.9444  -16.7124   10.7251 H   0  0  0  0  0  0  0  0  0  0  0  0
  -12.1069  -14.7590   10.0901 H   0  0  0  0  0  0  0  0  0  0  0  0
  -10.9469  -14.2578   12.3224 H   0  0  0  0  0  0  0  0  0  0  0  0
  -13.2343  -20.5271   17.1907 H   0  0  0  0  0  0  0  0  0  0  0  0
  -11.1179  -19.6082   17.0122 H   0  0  0  0  0  0  0  0  0  0  0  0
  -12.2260  -21.9677   16.2194 H   0  0  0  0  0  0  0  0  0  0  0  0
  -10.5208  -21.3761   16.4981 H   0  0  0  0  0  0  0  0  0  0  0  0
  -10.6829  -22.0008   18.7561 H   0  0  0  0  0  0  0  0  0  0  0  0
  -12.4431  -22.4453   18.5493 H   0  0  0  0  0  0  0  0  0  0  0  0
  -11.1587  -19.5619   18.9936 H   0  0  0  0  0  0  0  0  0  0  0  0
  -14.6599  -19.0001   18.5928 H   0  0  0  0  0  0  0  0  0  0  0  0
  -16.3519  -19.1271   20.3767 H   0  0  0  0  0  0  0  0  0  0  0  0
  -15.9110  -20.3647   22.4512 H   0  0  0  0  0  0  0  0  0  0  0  0
  -14.4958  -21.7511   23.7663 H   0  0  0  0  0  0  0  0  0  0  0  0
  -12.2589  -22.5062   24.3718 H   0  0  0  0  0  0  0  0  0  0  0  0
  -10.3420  -22.0686   22.8119 H   0  0  0  0  0  0  0  0  0  0  0  0
  -10.6845  -20.9834   20.7083 H   0  0  0  0  0  0  0  0  0  0  0  0
  1  2  2  0
  2  3  1  0
  3  4  1  0
  4  5  1  0
  5  6  1  0
  6  7  2  0
  7  8  1  0
  8  9  1  0
  2 10  1  0
 10 11  1  0
 11 12  1  0
 12 13  1  0
 13 14  1  0
 14 15  1  0
 15 16  2  0
 16 17  1  0
 17 18  2  0
 18 19  1  0
 19 20  2  0
 20 21  1  0
 21 22  2  0
 22 23  1  0
 23 24  2  0
  9  5  2  0
 14 10  1  0
 24 15  1  0
 24 19  1  0
  3 25  1  0
  4 26  1  0
  4 27  1  0
  6 28  1  0
  7 29  1  0
  8 30  1  0
 11 31  1  0
 11 32  1  0
 12 33  1  0
 12 34  1  0
 13 35  1  0
 13 36  1  0
 14 37  1  0
 16 38  1  0
 17 39  1  0
 18 40  1  0
 20 41  1  0
 21 42  1  0
 22 43  1  0
 23 44  1  0
M  END
>  <Energy>  (75) 
760.03504939310676

>  <compound_id>  (75) 
36399

>  <target_id>  (75) 
1

>  <reference_id>  (75) 
95

>  <inspiration_ids>  (75) 
[95, 96]

>  <energy_score>  (75) 
737.6346635849447

>  <distance_score>  (75) 
13.464341684743202

>  <path>  (75) 
/opt/xchem-fragalysis-2/maxwin/BulkDock/SCRATCH/511017/C36399-P95/C36399-P95.minimised.mol

>  <scratch_subdir>  (75) 
/opt/xchem-fragalysis-2/maxwin/BulkDock/SCRATCH/511017/C36399-P95

>  <fragmenstein_runtime>  (75) 
44.05662393569946

>  <fragmenstein_outcome>  (75) 
too moved

>  <fragmenstein_mode>  (75) 
expansion

>  <fragmenstein_error>  (75) 


$$$$
C36399-P96
     RDKit          3D

 44 47  0  0  0  0  0  0  0  0999 V2000
  -16.7203  -18.6606   17.9686 O   0  0  0  0  0  0  0  0  0  0  0  0
  -16.0969  -17.7603   18.2432 C   0  0  0  0  0  0  0  0  0  0  0  0
  -15.8555  -16.5024   17.4975 N   0  0  0  0  0  0  0  0  0  0  0  0
  -16.2764  -16.0973   16.1381 C   0  0  0  0  0  0  0  0  0  0  0  0
  -16.3001  -14.6441   15.6869 C   0  0  0  0  0  0  0  0  0  0  0  0
  -16.7842  -13.4903   16.3570 C   0  0  0  0  0  0  0  0  0  0  0  0
  -16.6700  -12.4519   15.4607 C   0  0  0  0  0  0  0  0  0  0  0  0
  -16.1192  -12.9903   14.3419 N   0  0  0  0  0  0  0  0  0  0  0  0
  -15.9691  -14.3256   14.4140 N   0  0  0  0  0  0  0  0  0  0  0  0
  -15.1461  -17.3994   19.6070 N   0  0  0  0  0  0  0  0  0  0  0  0
  -14.9098  -17.9720   20.8245 C   0  0  0  0  0  0  0  0  0  0  0  0
  -16.2960  -18.0109   21.8039 C   0  0  0  0  0  0  0  0  0  0  0  0
  -16.1880  -19.3939   21.4663 C   0  0  0  0  0  0  0  0  0  0  0  0
  -14.8222  -18.7303   20.9650 C   0  0  0  0  0  0  0  0  0  0  0  0
  -13.3812  -19.4070   21.7463 C   0  0  0  0  0  0  0  0  0  0  0  0
  -13.5776  -20.0670   22.9869 C   0  0  0  0  0  0  0  0  0  0  0  0
  -12.5766  -20.8697   23.5314 C   0  0  0  0  0  0  0  0  0  0  0  0
  -11.3493  -20.9779   22.8972 C   0  0  0  0  0  0  0  0  0  0  0  0
  -11.0974  -20.2805   21.7106 C   0  0  0  0  0  0  0  0  0  0  0  0
   -9.8443  -20.4036   21.0926 C   0  0  0  0  0  0  0  0  0  0  0  0
   -9.5640  -19.7411   19.9000 C   0  0  0  0  0  0  0  0  0  0  0  0
  -10.5426  -18.9625   19.2978 C   0  0  0  0  0  0  0  0  0  0  0  0
  -11.8065  -18.8490   19.8819 C   0  0  0  0  0  0  0  0  0  0  0  0
  -12.1148  -19.4877   21.1028 C   0  0  0  0  0  0  0  0  0  0  0  0
  -15.1803  -15.9419   17.9951 H   0  0  0  0  0  0  0  0  0  0  0  0
  -17.2821  -16.5124   15.9980 H   0  0  0  0  0  0  0  0  0  0  0  0
  -15.6229  -16.6626   15.4620 H   0  0  0  0  0  0  0  0  0  0  0  0
  -17.1868  -13.4395   17.3579 H   0  0  0  0  0  0  0  0  0  0  0  0
  -16.9344  -11.4096   15.5294 H   0  0  0  0  0  0  0  0  0  0  0  0
  -15.8665  -12.5254   13.4779 H   0  0  0  0  0  0  0  0  0  0  0  0
  -15.0890  -16.8287   21.1878 H   0  0  0  0  0  0  0  0  0  0  0  0
  -13.8233  -17.3363   21.1830 H   0  0  0  0  0  0  0  0  0  0  0  0
  -17.1581  -17.4795   21.3886 H   0  0  0  0  0  0  0  0  0  0  0  0
  -16.0817  -17.7809   22.8553 H   0  0  0  0  0  0  0  0  0  0  0  0
  -16.1605  -20.0972   22.2935 H   0  0  0  0  0  0  0  0  0  0  0  0
  -16.8473  -19.7110   20.6530 H   0  0  0  0  0  0  0  0  0  0  0  0
  -14.6667  -19.6296   20.1371 H   0  0  0  0  0  0  0  0  0  0  0  0
  -14.5183  -20.0131   23.5249 H   0  0  0  0  0  0  0  0  0  0  0  0
  -12.7587  -21.4493   24.4292 H   0  0  0  0  0  0  0  0  0  0  0  0
  -10.5920  -21.6404   23.3094 H   0  0  0  0  0  0  0  0  0  0  0  0
   -9.0749  -21.0397   21.5291 H   0  0  0  0  0  0  0  0  0  0  0  0
   -8.5872  -19.8472   19.4357 H   0  0  0  0  0  0  0  0  0  0  0  0
  -10.3265  -18.4471   18.3658 H   0  0  0  0  0  0  0  0  0  0  0  0
  -12.5404  -18.2421   19.3593 H   0  0  0  0  0  0  0  0  0  0  0  0
  1  2  2  0
  2  3  1  0
  3  4  1  0
  4  5  1  0
  5  6  1  0
  6  7  2  0
  7  8  1  0
  8  9  1  0
  2 10  1  0
 10 11  1  0
 11 12  1  0
 12 13  1  0
 13 14  1  0
 14 15  1  0
 15 16  2  0
 16 17  1  0
 17 18  2  0
 18 19  1  0
 19 20  2  0
 20 21  1  0
 21 22  2  0
 22 23  1  0
 23 24  2  0
  9  5  2  0
 14 10  1  0
 24 15  1  0
 24 19  1  0
  3 25  1  0
  4 26  1  0
  4 27  1  0
  6 28  1  0
  7 29  1  0
  8 30  1  0
 11 31  1  0
 11 32  1  0
 12 33  1  0
 12 34  1  0
 13 35  1  0
 13 36  1  0
 14 37  1  0
 16 38  1  0
 17 39  1  0
 18 40  1  0
 20 41  1  0
 21 42  1  0
 22 43  1  0
 23 44  1  0
M  END
>  <Energy>  (76) 
725.7826457404725

>  <compound_id>  (76) 
36399

>  <target_id>  (76) 
1

>  <reference_id>  (76) 
96

>  <inspiration_ids>  (76) 
[95, 96]

>  <energy_score>  (76) 
703.3822599323316

>  <distance_score>  (76) 
13.084140836487128

>  <path>  (76) 
/opt/xchem-fragalysis-2/maxwin/BulkDock/SCRATCH/511017/C36399-P96/C36399-P96.minimised.mol

>  <scratch_subdir>  (76) 
/opt/xchem-fragalysis-2/maxwin/BulkDock/SCRATCH/511017/C36399-P96

>  <fragmenstein_runtime>  (76) 
47.15834903717041

>  <fragmenstein_outcome>  (76) 
too moved

>  <fragmenstein_mode>  (76) 
expansion

>  <fragmenstein_error>  (76) 


$$$$
C36401-P95
     RDKit          3D

 37 39  0  0  0  0  0  0  0  0999 V2000
   -9.4528  -13.5021   19.8727 C   0  0  0  0  0  0  0  0  0  0  0  0
   -8.4336  -14.7037   20.2753 S   0  0  0  0  0  0  0  0  0  0  0  0
   -7.4196  -13.5480   20.2464 O   0  0  0  0  0  0  0  0  0  0  0  0
   -8.0573  -16.2333   22.0956 N   0  0  0  0  0  0  0  0  0  0  0  0
   -8.1759  -16.2348   24.4046 C   0  0  0  0  0  0  0  0  0  0  0  0
   -7.5350  -15.2183   24.8380 O   0  0  0  0  0  0  0  0  0  0  0  0
   -9.1442  -17.1554   26.0854 C   0  0  0  0  0  0  0  0  0  0  0  0
   -9.2910  -18.8475   27.5316 C   0  0  0  0  0  0  0  0  0  0  0  0
   -8.8200  -19.9887   28.2225 C   0  0  0  0  0  0  0  0  0  0  0  0
  -10.2801  -20.8687   29.0409 C   0  0  0  0  0  0  0  0  0  0  0  0
  -10.4423  -21.5591   27.9443 N   0  0  0  0  0  0  0  0  0  0  0  0
   -9.6702  -20.6776   27.1661 N   0  0  0  0  0  0  0  0  0  0  0  0
   -9.9280  -16.1850   27.1185 C   0  0  0  0  0  0  0  0  0  0  0  0
   -8.4808  -16.1196   27.2829 C   0  0  0  0  0  0  0  0  0  0  0  0
   -7.7864  -13.5878   17.8950 C   0  0  0  0  0  0  0  0  0  0  0  0
   -6.0717  -12.2549   17.5474 C   0  0  0  0  0  0  0  0  0  0  0  0
   -5.5711  -11.3139   15.5388 C   0  0  0  0  0  0  0  0  0  0  0  0
   -6.6742  -12.5851   13.8419 N   0  0  0  0  0  0  0  0  0  0  0  0
   -7.1653  -13.9169   15.7316 C   0  0  0  0  0  0  0  0  0  0  0  0
   -9.0980  -12.7291   19.1818 H   0  0  0  0  0  0  0  0  0  0  0  0
   -9.6148  -13.1204   20.9132 H   0  0  0  0  0  0  0  0  0  0  0  0
  -10.2079  -13.8899   19.2364 H   0  0  0  0  0  0  0  0  0  0  0  0
   -7.9598  -20.7677   27.7610 H   0  0  0  0  0  0  0  0  0  0  0  0
  -10.5624  -21.2552   30.0163 H   0  0  0  0  0  0  0  0  0  0  0  0
  -10.9490  -22.3714   27.5859 H   0  0  0  0  0  0  0  0  0  0  0  0
  -10.4925  -15.3169   26.8625 H   0  0  0  0  0  0  0  0  0  0  0  0
  -10.4611  -16.6501   27.9505 H   0  0  0  0  0  0  0  0  0  0  0  0
   -8.0052  -15.1879   27.0091 H   0  0  0  0  0  0  0  0  0  0  0  0
   -8.0228  -16.5910   28.1452 H   0  0  0  0  0  0  0  0  0  0  0  0
   -7.9011  -14.6953   17.6487 H   0  0  0  0  0  0  0  0  0  0  0  0
   -5.4600  -13.1033   17.2119 H   0  0  0  0  0  0  0  0  0  0  0  0
   -5.3449  -12.0898   18.3332 H   0  0  0  0  0  0  0  0  0  0  0  0
   -6.1114  -10.2893   15.7247 H   0  0  0  0  0  0  0  0  0  0  0  0
   -4.5831  -10.8385   15.2362 H   0  0  0  0  0  0  0  0  0  0  0  0
   -7.5731  -12.0392   13.6385 H   0  0  0  0  0  0  0  0  0  0  0  0
   -6.7469  -14.9346   15.8619 H   0  0  0  0  0  0  0  0  0  0  0  0
   -7.9675  -14.3986   15.0139 H   0  0  0  0  0  0  0  0  0  0  0  0
  1  2  1  0
  2  3  2  0
  2  4  2  0
  4  5  1  0
  5  6  2  0
  5  7  1  0
  7  8  1  0
  8  9  1  0
  9 10  2  0
 10 11  1  0
 11 12  1  0
  7 13  1  0
 13 14  1  0
  2 15  1  0
 15 16  1  0
 16 17  1  0
 17 18  1  0
 18 19  1  0
 14  7  1  0
 19 15  1  0
 12  8  2  0
  1 20  1  0
  1 21  1  0
  1 22  1  0
  9 23  1  0
 10 24  1  0
 11 25  1  0
 13 26  1  0
 13 27  1  0
 14 28  1  0
 14 29  1  0
 15 30  1  0
 16 31  1  0
 16 32  1  0
 17 33  1  0
 17 34  1  0
 18 35  1  0
 19 36  1  0
 19 37  1  0
M  END
>  <Energy>  (77) 
3397.5700969937293

>  <compound_id>  (77) 
36401

>  <target_id>  (77) 
1

>  <reference_id>  (77) 
95

>  <inspiration_ids>  (77) 
[95, 96]

>  <energy_score>  (77) 
3334.6832546871356

>  <distance_score>  (77) 
10.651578689412593

>  <path>  (77) 
/opt/xchem-fragalysis-2/maxwin/BulkDock/SCRATCH/511017/C36401-P95/C36401-P95.minimised.mol

>  <scratch_subdir>  (77) 
/opt/xchem-fragalysis-2/maxwin/BulkDock/SCRATCH/511017/C36401-P95

>  <fragmenstein_runtime>  (77) 
24.70402193069458

>  <fragmenstein_outcome>  (77) 
too moved

>  <fragmenstein_mode>  (77) 
expansion

>  <fragmenstein_error>  (77) 


$$$$
C36401-P96
     RDKit          3D

 37 39  0  0  0  0  0  0  0  0999 V2000
  -10.3197  -12.9739   17.2794 C   0  0  0  0  0  0  0  0  0  0  0  0
   -9.1257  -13.8729   18.0444 S   0  0  0  0  0  0  0  0  0  0  0  0
   -9.5981  -13.5164   19.3209 O   0  0  0  0  0  0  0  0  0  0  0  0
   -8.8777  -15.9293   17.7650 N   0  0  0  0  0  0  0  0  0  0  0  0
   -7.4356  -17.1519   18.3482 C   0  0  0  0  0  0  0  0  0  0  0  0
   -6.3039  -17.1081   17.8360 O   0  0  0  0  0  0  0  0  0  0  0  0
   -7.4454  -18.4364   19.6868 C   0  0  0  0  0  0  0  0  0  0  0  0
   -6.8738  -19.8571   19.2338 C   0  0  0  0  0  0  0  0  0  0  0  0
   -7.6726  -21.0291   19.3534 C   0  0  0  0  0  0  0  0  0  0  0  0
   -6.7849  -22.0742   19.3482 C   0  0  0  0  0  0  0  0  0  0  0  0
   -5.5559  -21.5029   19.2275 N   0  0  0  0  0  0  0  0  0  0  0  0
   -5.5753  -20.1604   19.1477 N   0  0  0  0  0  0  0  0  0  0  0  0
   -6.9523  -17.4565   20.7128 C   0  0  0  0  0  0  0  0  0  0  0  0
   -7.2605  -18.6636   21.3356 C   0  0  0  0  0  0  0  0  0  0  0  0
   -7.6760  -12.2197   17.4368 C   0  0  0  0  0  0  0  0  0  0  0  0
   -6.2576  -11.5019   17.6046 C   0  0  0  0  0  0  0  0  0  0  0  0
   -5.8772  -10.8916   16.2631 C   0  0  0  0  0  0  0  0  0  0  0  0
   -7.1154  -10.2224   15.9226 N   0  0  0  0  0  0  0  0  0  0  0  0
   -8.1633  -11.0586   16.5771 C   0  0  0  0  0  0  0  0  0  0  0  0
  -10.3514  -12.0325   17.7704 H   0  0  0  0  0  0  0  0  0  0  0  0
  -11.3457  -13.2597   17.2494 H   0  0  0  0  0  0  0  0  0  0  0  0
   -9.7986  -12.8654   16.3435 H   0  0  0  0  0  0  0  0  0  0  0  0
   -8.7331  -21.0969   19.5357 H   0  0  0  0  0  0  0  0  0  0  0  0
   -6.9182  -23.1407   19.4543 H   0  0  0  0  0  0  0  0  0  0  0  0
   -4.6546  -21.9646   19.2024 H   0  0  0  0  0  0  0  0  0  0  0  0
   -5.9880  -17.0824   20.5088 H   0  0  0  0  0  0  0  0  0  0  0  0
   -7.7193  -16.7238   20.9184 H   0  0  0  0  0  0  0  0  0  0  0  0
   -6.5845  -19.4539   21.6090 H   0  0  0  0  0  0  0  0  0  0  0  0
   -7.9931  -18.5464   22.1054 H   0  0  0  0  0  0  0  0  0  0  0  0
   -7.8302  -11.9002   18.4395 H   0  0  0  0  0  0  0  0  0  0  0  0
   -5.4157  -11.8538   18.1807 H   0  0  0  0  0  0  0  0  0  0  0  0
   -6.3412  -10.5727   18.1461 H   0  0  0  0  0  0  0  0  0  0  0  0
   -5.0521  -10.1772   16.3508 H   0  0  0  0  0  0  0  0  0  0  0  0
   -5.5948  -11.6456   15.5375 H   0  0  0  0  0  0  0  0  0  0  0  0
   -7.1262   -9.2964   16.3539 H   0  0  0  0  0  0  0  0  0  0  0  0
   -8.5712  -11.5465   15.7461 H   0  0  0  0  0  0  0  0  0  0  0  0
   -8.8180  -10.3729   17.1117 H   0  0  0  0  0  0  0  0  0  0  0  0
  1  2  1  0
  2  3  2  0
  2  4  2  0
  4  5  1  0
  5  6  2  0
  5  7  1  0
  7  8  1  0
  8  9  1  0
  9 10  2  0
 10 11  1  0
 11 12  1  0
  7 13  1  0
 13 14  1  0
  2 15  1  0
 15 16  1  0
 16 17  1  0
 17 18  1  0
 18 19  1  0
 14  7  1  0
 19 15  1  0
 12  8  2  0
  1 20  1  0
  1 21  1  0
  1 22  1  0
  9 23  1  0
 10 24  1  0
 11 25  1  0
 13 26  1  0
 13 27  1  0
 14 28  1  0
 14 29  1  0
 15 30  1  0
 16 31  1  0
 16 32  1  0
 17 33  1  0
 17 34  1  0
 18 35  1  0
 19 36  1  0
 19 37  1  0
M  END
>  <Energy>  (78) 
491.29829284786706

>  <compound_id>  (78) 
36401

>  <target_id>  (78) 
1

>  <reference_id>  (78) 
96

>  <inspiration_ids>  (78) 
[95, 96]

>  <energy_score>  (78) 
428.4114505412856

>  <distance_score>  (78) 
12.673769980877951

>  <path>  (78) 
/opt/xchem-fragalysis-2/maxwin/BulkDock/SCRATCH/511017/C36401-P96/C36401-P96.minimised.mol

>  <scratch_subdir>  (78) 
/opt/xchem-fragalysis-2/maxwin/BulkDock/SCRATCH/511017/C36401-P96

>  <fragmenstein_runtime>  (78) 
29.274656057357788

>  <fragmenstein_outcome>  (78) 
too moved

>  <fragmenstein_mode>  (78) 
expansion

>  <fragmenstein_error>  (78) 


$$$$
C36403-P95
     RDKit          3D

 44 45  0  0  0  0  0  0  0  0999 V2000
   -7.4849   -2.7111    4.2464 C   0  0  0  0  0  0  0  0  0  0  0  0
   -6.9063   -3.1456    5.4689 O   0  0  0  0  0  0  0  0  0  0  0  0
   -7.9193   -3.5864    6.3976 C   0  0  0  0  0  0  0  0  0  0  0  0
   -7.3823   -3.6680    7.9048 C   0  0  0  0  0  0  0  0  0  0  0  0
   -7.3807   -2.2499    8.2553 O   0  0  0  0  0  0  0  0  0  0  0  0
   -6.3446   -1.4718    7.6689 C   0  0  0  0  0  0  0  0  0  0  0  0
   -8.5066   -4.5358    8.6890 C   0  0  0  0  0  0  0  0  0  0  0  0
   -9.4597   -4.6004    8.0257 O   0  0  0  0  0  0  0  0  0  0  0  0
   -8.3118   -5.2650   10.3502 N   0  0  0  0  0  0  0  0  0  0  0  0
   -7.4096   -7.3206   10.1218 C   0  0  0  0  0  0  0  0  0  0  0  0
   -8.4252   -8.6754   11.4168 C   0  0  0  0  0  0  0  0  0  0  0  0
   -9.6466   -8.6170   13.0701 C   0  0  0  0  0  0  0  0  0  0  0  0
   -9.9406  -10.6358   14.7289 C   0  0  0  0  0  0  0  0  0  0  0  0
  -10.9788  -12.0878   16.5226 N   0  0  0  0  0  0  0  0  0  0  0  0
  -10.7661  -14.1341   17.7263 C   0  0  0  0  0  0  0  0  0  0  0  0
   -9.4367  -15.3961   17.7070 O   0  0  0  0  0  0  0  0  0  0  0  0
  -12.2570  -15.2890   19.0416 C   0  0  0  0  0  0  0  0  0  0  0  0
  -11.7341  -16.5664   19.8885 C   0  0  0  0  0  0  0  0  0  0  0  0
  -12.7790  -17.0657   20.6113 C   0  0  0  0  0  0  0  0  0  0  0  0
  -13.8566  -16.3269   20.2611 N   0  0  0  0  0  0  0  0  0  0  0  0
  -13.6785  -15.4105   19.2766 N   0  0  0  0  0  0  0  0  0  0  0  0
   -9.9051   -6.2756   11.6557 C   0  0  0  0  0  0  0  0  0  0  0  0
   -8.0868   -1.8120    4.4096 H   0  0  0  0  0  0  0  0  0  0  0  0
   -6.6764   -2.4645    3.5532 H   0  0  0  0  0  0  0  0  0  0  0  0
   -8.0998   -3.4970    3.8011 H   0  0  0  0  0  0  0  0  0  0  0  0
   -8.2339   -4.5748    6.0735 H   0  0  0  0  0  0  0  0  0  0  0  0
   -8.7738   -2.8976    6.3478 H   0  0  0  0  0  0  0  0  0  0  0  0
   -6.4213   -4.1451    7.7502 H   0  0  0  0  0  0  0  0  0  0  0  0
   -6.1019   -0.6596    8.3603 H   0  0  0  0  0  0  0  0  0  0  0  0
   -5.4367   -2.0537    7.4861 H   0  0  0  0  0  0  0  0  0  0  0  0
   -6.7004   -1.0133    6.7428 H   0  0  0  0  0  0  0  0  0  0  0  0
   -7.4249   -7.7428    9.0821 H   0  0  0  0  0  0  0  0  0  0  0  0
   -6.3239   -7.2887   10.4194 H   0  0  0  0  0  0  0  0  0  0  0  0
   -9.2723   -9.0265   10.8775 H   0  0  0  0  0  0  0  0  0  0  0  0
   -7.9062   -8.5742   12.4262 H   0  0  0  0  0  0  0  0  0  0  0  0
  -10.3182   -9.3594   12.5051 H   0  0  0  0  0  0  0  0  0  0  0  0
   -9.7274  -11.4813   14.0090 H   0  0  0  0  0  0  0  0  0  0  0  0
   -8.8530  -10.7107   14.8733 H   0  0  0  0  0  0  0  0  0  0  0  0
  -11.8864  -11.6783   16.7146 H   0  0  0  0  0  0  0  0  0  0  0  0
  -10.7065  -16.9182   19.8638 H   0  0  0  0  0  0  0  0  0  0  0  0
  -12.8500  -17.8890   21.3071 H   0  0  0  0  0  0  0  0  0  0  0  0
  -14.8054  -16.4533   20.5962 H   0  0  0  0  0  0  0  0  0  0  0  0
   -9.8302   -5.3359   12.5117 H   0  0  0  0  0  0  0  0  0  0  0  0
  -10.8042   -5.6676   11.2406 H   0  0  0  0  0  0  0  0  0  0  0  0
  1  2  1  0
  2  3  1  0
  3  4  1  0
  4  5  1  0
  5  6  1  0
  4  7  1  0
  7  8  2  0
  7  9  1  0
  9 10  1  0
 10 11  1  0
 11 12  1  0
 12 13  1  0
 13 14  1  0
 14 15  1  0
 15 16  2  0
 15 17  1  0
 17 18  1  0
 18 19  2  0
 19 20  1  0
 20 21  1  0
 12 22  1  0
 22  9  1  0
 21 17  2  0
  1 23  1  0
  1 24  1  0
  1 25  1  0
  3 26  1  0
  3 27  1  0
  4 28  1  0
  6 29  1  0
  6 30  1  0
  6 31  1  0
 10 32  1  0
 10 33  1  0
 11 34  1  0
 11 35  1  0
 12 36  1  0
 13 37  1  0
 13 38  1  0
 14 39  1  0
 18 40  1  0
 19 41  1  0
 20 42  1  0
 22 43  1  0
 22 44  1  0
M  END
>  <Energy>  (79) 
4616.5663486892972

>  <compound_id>  (79) 
36403

>  <target_id>  (79) 
1

>  <reference_id>  (79) 
95

>  <inspiration_ids>  (79) 
[95, 96]

>  <energy_score>  (79) 
4508.812455950648

>  <distance_score>  (79) 
8.608713201921303

>  <path>  (79) 
/opt/xchem-fragalysis-2/maxwin/BulkDock/SCRATCH/511017/C36403-P95/C36403-P95.minimised.mol

>  <scratch_subdir>  (79) 
/opt/xchem-fragalysis-2/maxwin/BulkDock/SCRATCH/511017/C36403-P95

>  <fragmenstein_runtime>  (79) 
17.839137077331543

>  <fragmenstein_outcome>  (79) 
too moved

>  <fragmenstein_mode>  (79) 
expansion

>  <fragmenstein_error>  (79) 


$$$$
C36403-P96
     RDKit          3D

 44 45  0  0  0  0  0  0  0  0999 V2000
  -12.5188   -4.9788    4.1094 C   0  0  0  0  0  0  0  0  0  0  0  0
  -11.9107   -6.2556    4.1962 O   0  0  0  0  0  0  0  0  0  0  0  0
  -10.4872   -6.2614    4.2620 C   0  0  0  0  0  0  0  0  0  0  0  0
   -9.8055   -5.5871    5.4842 C   0  0  0  0  0  0  0  0  0  0  0  0
  -10.1741   -4.1929    5.4803 O   0  0  0  0  0  0  0  0  0  0  0  0
   -9.4232   -3.3851    4.5871 C   0  0  0  0  0  0  0  0  0  0  0  0
  -10.1133   -6.5599    6.8720 C   0  0  0  0  0  0  0  0  0  0  0  0
  -11.1893   -6.3793    7.4385 O   0  0  0  0  0  0  0  0  0  0  0  0
   -8.8967   -7.7227    7.1482 N   0  0  0  0  0  0  0  0  0  0  0  0
   -7.5804   -7.4645    8.2125 C   0  0  0  0  0  0  0  0  0  0  0  0
   -7.9300   -7.2443    9.5054 C   0  0  0  0  0  0  0  0  0  0  0  0
   -8.4036   -8.7932    9.7938 C   0  0  0  0  0  0  0  0  0  0  0  0
   -9.4177   -9.7167   11.3028 C   0  0  0  0  0  0  0  0  0  0  0  0
   -9.3414  -10.5138   12.9453 N   0  0  0  0  0  0  0  0  0  0  0  0
   -9.9003  -12.0406   13.4853 C   0  0  0  0  0  0  0  0  0  0  0  0
  -10.4695  -12.8887   12.8380 O   0  0  0  0  0  0  0  0  0  0  0  0
   -9.4421  -12.5223   15.3388 C   0  0  0  0  0  0  0  0  0  0  0  0
  -10.3340  -12.8673   16.8417 C   0  0  0  0  0  0  0  0  0  0  0  0
   -9.3899  -13.1068   17.7442 C   0  0  0  0  0  0  0  0  0  0  0  0
   -8.3700  -12.3711   17.2940 N   0  0  0  0  0  0  0  0  0  0  0  0
   -8.4491  -11.7594   16.1120 N   0  0  0  0  0  0  0  0  0  0  0  0
   -8.8383   -9.1554    8.2533 C   0  0  0  0  0  0  0  0  0  0  0  0
  -12.0425   -4.3657    3.3392 H   0  0  0  0  0  0  0  0  0  0  0  0
  -13.5660   -5.1239    3.8279 H   0  0  0  0  0  0  0  0  0  0  0  0
  -12.5087   -4.4712    5.0751 H   0  0  0  0  0  0  0  0  0  0  0  0
  -10.1142   -5.8220    3.3296 H   0  0  0  0  0  0  0  0  0  0  0  0
  -10.1985   -7.3167    4.2331 H   0  0  0  0  0  0  0  0  0  0  0  0
   -8.7454   -5.6818    5.2289 H   0  0  0  0  0  0  0  0  0  0  0  0
   -9.6204   -3.6595    3.5486 H   0  0  0  0  0  0  0  0  0  0  0  0
   -9.7317   -2.3456    4.7284 H   0  0  0  0  0  0  0  0  0  0  0  0
   -8.3524   -3.4564    4.7991 H   0  0  0  0  0  0  0  0  0  0  0  0
   -6.7437   -6.9003    7.7177 H   0  0  0  0  0  0  0  0  0  0  0  0
   -6.8993   -8.3392    8.3311 H   0  0  0  0  0  0  0  0  0  0  0  0
   -6.9577   -6.9885    9.8016 H   0  0  0  0  0  0  0  0  0  0  0  0
   -8.6693   -6.4807    9.6460 H   0  0  0  0  0  0  0  0  0  0  0  0
   -7.3186   -9.1869    9.9416 H   0  0  0  0  0  0  0  0  0  0  0  0
   -8.3723   -9.7872   11.5471 H   0  0  0  0  0  0  0  0  0  0  0  0
  -10.0704  -10.4531   10.8283 H   0  0  0  0  0  0  0  0  0  0  0  0
   -8.8393  -10.0663   13.6813 H   0  0  0  0  0  0  0  0  0  0  0  0
  -11.4171  -12.9290   16.8410 H   0  0  0  0  0  0  0  0  0  0  0  0
   -9.3474  -13.5950   18.6899 H   0  0  0  0  0  0  0  0  0  0  0  0
   -7.5025  -12.3099   17.8001 H   0  0  0  0  0  0  0  0  0  0  0  0
   -9.6452   -9.8889    8.0618 H   0  0  0  0  0  0  0  0  0  0  0  0
   -8.0542   -9.7892    7.8000 H   0  0  0  0  0  0  0  0  0  0  0  0
  1  2  1  0
  2  3  1  0
  3  4  1  0
  4  5  1  0
  5  6  1  0
  4  7  1  0
  7  8  2  0
  7  9  1  0
  9 10  1  0
 10 11  1  0
 11 12  1  0
 12 13  1  0
 13 14  1  0
 14 15  1  0
 15 16  2  0
 15 17  1  0
 17 18  1  0
 18 19  2  0
 19 20  1  0
 20 21  1  0
 12 22  1  0
 22  9  1  0
 21 17  2  0
  1 23  1  0
  1 24  1  0
  1 25  1  0
  3 26  1  0
  3 27  1  0
  4 28  1  0
  6 29  1  0
  6 30  1  0
  6 31  1  0
 10 32  1  0
 10 33  1  0
 11 34  1  0
 11 35  1  0
 12 36  1  0
 13 37  1  0
 13 38  1  0
 14 39  1  0
 18 40  1  0
 19 41  1  0
 20 42  1  0
 22 43  1  0
 22 44  1  0
M  END
>  <Energy>  (80) 
644.28347851018191

>  <compound_id>  (80) 
36403

>  <target_id>  (80) 
1

>  <reference_id>  (80) 
96

>  <inspiration_ids>  (80) 
[95, 96]

>  <energy_score>  (80) 
536.5295857714129

>  <distance_score>  (80) 
11.135098726335508

>  <path>  (80) 
/opt/xchem-fragalysis-2/maxwin/BulkDock/SCRATCH/511017/C36403-P96/C36403-P96.minimised.mol

>  <scratch_subdir>  (80) 
/opt/xchem-fragalysis-2/maxwin/BulkDock/SCRATCH/511017/C36403-P96

>  <fragmenstein_runtime>  (80) 
19.165836334228516

>  <fragmenstein_outcome>  (80) 
too moved

>  <fragmenstein_mode>  (80) 
expansion

>  <fragmenstein_error>  (80) 


$$$$
C36404-P95
     RDKit          3D

 47 48  0  0  0  0  0  0  0  0999 V2000
  -10.3703   -1.4483    6.1624 C   0  0  0  0  0  0  0  0  0  0  0  0
   -9.8892   -2.5504    5.4070 O   0  0  0  0  0  0  0  0  0  0  0  0
   -9.5050   -3.6697    6.2442 C   0  0  0  0  0  0  0  0  0  0  0  0
   -8.0276   -3.5779    6.5629 C   0  0  0  0  0  0  0  0  0  0  0  0
   -7.3233   -3.4804    5.2906 O   0  0  0  0  0  0  0  0  0  0  0  0
   -6.5107   -2.3204    5.1961 C   0  0  0  0  0  0  0  0  0  0  0  0
   -7.2364   -4.5741    7.4874 C   0  0  0  0  0  0  0  0  0  0  0  0
   -6.0783   -4.2676    7.5628 O   0  0  0  0  0  0  0  0  0  0  0  0
   -8.0173   -5.6527    8.1940 N   0  0  0  0  0  0  0  0  0  0  0  0
   -8.7424   -4.9551    9.7384 C   0  0  0  0  0  0  0  0  0  0  0  0
   -9.8632   -5.8937   11.2022 C   0  0  0  0  0  0  0  0  0  0  0  0
   -8.9051   -8.1399   10.9641 C   0  0  0  0  0  0  0  0  0  0  0  0
   -8.9645   -9.7057   12.4648 C   0  0  0  0  0  0  0  0  0  0  0  0
   -8.6253  -11.6187   13.4072 C   0  0  0  0  0  0  0  0  0  0  0  0
   -8.7139  -13.6014   13.8589 N   0  0  0  0  0  0  0  0  0  0  0  0
   -7.7453  -14.6923   15.1678 C   0  0  0  0  0  0  0  0  0  0  0  0
   -6.8904  -14.1628   15.7765 O   0  0  0  0  0  0  0  0  0  0  0  0
   -7.9421  -16.3765   15.8592 C   0  0  0  0  0  0  0  0  0  0  0  0
   -8.2699  -16.4575   17.4383 C   0  0  0  0  0  0  0  0  0  0  0  0
   -8.3983  -17.6817   18.0309 C   0  0  0  0  0  0  0  0  0  0  0  0
   -8.4303  -18.3945   16.9211 N   0  0  0  0  0  0  0  0  0  0  0  0
   -8.3679  -17.6388   15.7152 N   0  0  0  0  0  0  0  0  0  0  0  0
   -7.3887   -7.2478    9.5271 C   0  0  0  0  0  0  0  0  0  0  0  0
  -11.2587   -1.7301    6.7356 H   0  0  0  0  0  0  0  0  0  0  0  0
  -10.6460   -0.6510    5.4670 H   0  0  0  0  0  0  0  0  0  0  0  0
   -9.5961   -1.0683    6.8346 H   0  0  0  0  0  0  0  0  0  0  0  0
  -10.1068   -3.6631    7.1502 H   0  0  0  0  0  0  0  0  0  0  0  0
   -9.7413   -4.5752    5.6859 H   0  0  0  0  0  0  0  0  0  0  0  0
   -7.9069   -2.6184    7.0891 H   0  0  0  0  0  0  0  0  0  0  0  0
   -6.0022   -2.3373    4.2282 H   0  0  0  0  0  0  0  0  0  0  0  0
   -5.7517   -2.3007    5.9829 H   0  0  0  0  0  0  0  0  0  0  0  0
   -7.1269   -1.4175    5.2461 H   0  0  0  0  0  0  0  0  0  0  0  0
   -7.6972   -4.8810   10.1027 H   0  0  0  0  0  0  0  0  0  0  0  0
   -9.2495   -4.1092    9.2876 H   0  0  0  0  0  0  0  0  0  0  0  0
  -10.8582   -5.5498   10.8891 H   0  0  0  0  0  0  0  0  0  0  0  0
   -9.5814   -5.1268   12.0337 H   0  0  0  0  0  0  0  0  0  0  0  0
   -9.4988   -8.8049   10.3237 H   0  0  0  0  0  0  0  0  0  0  0  0
   -8.4793   -9.1579   13.2895 H   0  0  0  0  0  0  0  0  0  0  0  0
  -10.0406   -9.7265   12.6440 H   0  0  0  0  0  0  0  0  0  0  0  0
   -9.0325  -11.3150   14.3732 H   0  0  0  0  0  0  0  0  0  0  0  0
   -9.4485  -11.9191   12.7371 H   0  0  0  0  0  0  0  0  0  0  0  0
   -9.4750  -14.1530   13.4724 H   0  0  0  0  0  0  0  0  0  0  0  0
   -8.4691  -15.6131   18.0488 H   0  0  0  0  0  0  0  0  0  0  0  0
   -8.5930  -18.0349   19.0319 H   0  0  0  0  0  0  0  0  0  0  0  0
   -8.6333  -19.3864   16.8638 H   0  0  0  0  0  0  0  0  0  0  0  0
   -6.4251   -7.0041    9.9917 H   0  0  0  0  0  0  0  0  0  0  0  0
   -7.2910   -8.0572    8.7875 H   0  0  0  0  0  0  0  0  0  0  0  0
  1  2  1  0
  2  3  1  0
  3  4  1  0
  4  5  1  0
  5  6  1  0
  4  7  1  0
  7  8  2  0
  7  9  1  0
  9 10  1  0
 10 11  1  0
 11 12  1  0
 12 13  1  0
 13 14  1  0
 14 15  1  0
 15 16  1  0
 16 17  2  0
 16 18  1  0
 18 19  1  0
 19 20  2  0
 20 21  1  0
 21 22  1  0
 12 23  1  0
 23  9  1  0
 22 18  2  0
  1 24  1  0
  1 25  1  0
  1 26  1  0
  3 27  1  0
  3 28  1  0
  4 29  1  0
  6 30  1  0
  6 31  1  0
  6 32  1  0
 10 33  1  0
 10 34  1  0
 11 35  1  0
 11 36  1  0
 12 37  1  0
 13 38  1  0
 13 39  1  0
 14 40  1  0
 14 41  1  0
 15 42  1  0
 19 43  1  0
 20 44  1  0
 21 45  1  0
 23 46  1  0
 23 47  1  0
M  END
>  <Energy>  (81) 
1560.0269369065572

>  <compound_id>  (81) 
36404

>  <target_id>  (81) 
1

>  <reference_id>  (81) 
95

>  <inspiration_ids>  (81) 
[95, 96]

>  <energy_score>  (81) 
1430.7754742592083

>  <distance_score>  (81) 
9.168552826594668

>  <path>  (81) 
/opt/xchem-fragalysis-2/maxwin/BulkDock/SCRATCH/511017/C36404-P95/C36404-P95.minimised.mol

>  <scratch_subdir>  (81) 
/opt/xchem-fragalysis-2/maxwin/BulkDock/SCRATCH/511017/C36404-P95

>  <fragmenstein_runtime>  (81) 
25.696406602859497

>  <fragmenstein_outcome>  (81) 
too moved

>  <fragmenstein_mode>  (81) 
expansion

>  <fragmenstein_error>  (81) 


$$$$
C36404-P96
     RDKit          3D

 47 48  0  0  0  0  0  0  0  0999 V2000
   -9.2844   -1.0989   15.9704 C   0  0  0  0  0  0  0  0  0  0  0  0
  -10.0377   -2.2732   15.7071 O   0  0  0  0  0  0  0  0  0  0  0  0
   -9.7732   -3.3151   16.6742 C   0  0  0  0  0  0  0  0  0  0  0  0
  -10.4806   -4.6853   16.3602 C   0  0  0  0  0  0  0  0  0  0  0  0
  -11.3363   -4.7088   15.2031 O   0  0  0  0  0  0  0  0  0  0  0  0
  -12.5188   -3.9295   15.3391 C   0  0  0  0  0  0  0  0  0  0  0  0
   -9.6876   -6.0896   16.6293 C   0  0  0  0  0  0  0  0  0  0  0  0
  -10.1604   -6.6513   17.6070 O   0  0  0  0  0  0  0  0  0  0  0  0
   -8.5698   -6.6026   15.6288 N   0  0  0  0  0  0  0  0  0  0  0  0
   -9.0854   -7.2613   14.6142 C   0  0  0  0  0  0  0  0  0  0  0  0
   -9.0984   -8.8426   15.7097 C   0  0  0  0  0  0  0  0  0  0  0  0
   -8.0903   -9.9225   15.4005 C   0  0  0  0  0  0  0  0  0  0  0  0
   -8.2993  -11.6117   16.6129 C   0  0  0  0  0  0  0  0  0  0  0  0
   -9.1153  -13.2682   17.5469 C   0  0  0  0  0  0  0  0  0  0  0  0
   -9.1396  -14.4096   19.1503 N   0  0  0  0  0  0  0  0  0  0  0  0
   -8.3214  -16.1856   19.5299 C   0  0  0  0  0  0  0  0  0  0  0  0
   -7.7508  -16.8083   18.6285 O   0  0  0  0  0  0  0  0  0  0  0  0
   -8.0876  -17.0623   21.0808 C   0  0  0  0  0  0  0  0  0  0  0  0
   -7.4041  -18.3449   21.0752 C   0  0  0  0  0  0  0  0  0  0  0  0
   -6.8325  -18.4895   22.3103 C   0  0  0  0  0  0  0  0  0  0  0  0
   -7.1258  -17.3425   22.9669 N   0  0  0  0  0  0  0  0  0  0  0  0
   -8.0267  -16.5592   22.3480 N   0  0  0  0  0  0  0  0  0  0  0  0
   -7.6587   -7.9641   15.6455 C   0  0  0  0  0  0  0  0  0  0  0  0
   -8.2132   -1.3087   15.8952 H   0  0  0  0  0  0  0  0  0  0  0  0
   -9.5237   -0.7041   16.9622 H   0  0  0  0  0  0  0  0  0  0  0  0
   -9.5457   -0.3472   15.2210 H   0  0  0  0  0  0  0  0  0  0  0  0
   -8.6918   -3.4658   16.7962 H   0  0  0  0  0  0  0  0  0  0  0  0
  -10.1354   -2.9573   17.6472 H   0  0  0  0  0  0  0  0  0  0  0  0
  -11.1948   -4.7379   17.1998 H   0  0  0  0  0  0  0  0  0  0  0  0
  -13.2203   -4.2426   14.5607 H   0  0  0  0  0  0  0  0  0  0  0  0
  -12.3065   -2.8688   15.1944 H   0  0  0  0  0  0  0  0  0  0  0  0
  -12.9996   -4.0610   16.3109 H   0  0  0  0  0  0  0  0  0  0  0  0
   -8.5360   -7.5209   13.7749 H   0  0  0  0  0  0  0  0  0  0  0  0
   -9.9380   -6.7002   14.1826 H   0  0  0  0  0  0  0  0  0  0  0  0
   -9.2251   -8.3419   16.6915 H   0  0  0  0  0  0  0  0  0  0  0  0
   -9.6883   -9.3697   16.4426 H   0  0  0  0  0  0  0  0  0  0  0  0
   -8.0060  -10.2768   14.4033 H   0  0  0  0  0  0  0  0  0  0  0  0
   -7.2567  -11.9741   16.5491 H   0  0  0  0  0  0  0  0  0  0  0  0
   -8.8552  -12.0473   15.8045 H   0  0  0  0  0  0  0  0  0  0  0  0
   -8.4181  -12.7966   18.2448 H   0  0  0  0  0  0  0  0  0  0  0  0
  -10.1257  -12.8771   17.6844 H   0  0  0  0  0  0  0  0  0  0  0  0
   -9.4760  -14.0188   19.9988 H   0  0  0  0  0  0  0  0  0  0  0  0
   -7.2294  -18.9810   20.2172 H   0  0  0  0  0  0  0  0  0  0  0  0
   -6.1699  -19.2403   22.7174 H   0  0  0  0  0  0  0  0  0  0  0  0
   -6.7437  -17.0245   23.8511 H   0  0  0  0  0  0  0  0  0  0  0  0
   -6.7854   -7.4667   15.1651 H   0  0  0  0  0  0  0  0  0  0  0  0
   -7.3070   -8.1369   16.5453 H   0  0  0  0  0  0  0  0  0  0  0  0
  1  2  1  0
  2  3  1  0
  3  4  1  0
  4  5  1  0
  5  6  1  0
  4  7  1  0
  7  8  2  0
  7  9  1  0
  9 10  1  0
 10 11  1  0
 11 12  1  0
 12 13  1  0
 13 14  1  0
 14 15  1  0
 15 16  1  0
 16 17  2  0
 16 18  1  0
 18 19  1  0
 19 20  2  0
 20 21  1  0
 21 22  1  0
 12 23  1  0
 23  9  1  0
 22 18  2  0
  1 24  1  0
  1 25  1  0
  1 26  1  0
  3 27  1  0
  3 28  1  0
  4 29  1  0
  6 30  1  0
  6 31  1  0
  6 32  1  0
 10 33  1  0
 10 34  1  0
 11 35  1  0
 11 36  1  0
 12 37  1  0
 13 38  1  0
 13 39  1  0
 14 40  1  0
 14 41  1  0
 15 42  1  0
 19 43  1  0
 20 44  1  0
 21 45  1  0
 23 46  1  0
 23 47  1  0
M  END
>  <Energy>  (82) 
987.65318441795432

>  <compound_id>  (82) 
36404

>  <target_id>  (82) 
1

>  <reference_id>  (82) 
96

>  <inspiration_ids>  (82) 
[95, 96]

>  <energy_score>  (82) 
858.4017217706075

>  <distance_score>  (82) 
11.128167275114047

>  <path>  (82) 
/opt/xchem-fragalysis-2/maxwin/BulkDock/SCRATCH/511017/C36404-P96/C36404-P96.minimised.mol

>  <scratch_subdir>  (82) 
/opt/xchem-fragalysis-2/maxwin/BulkDock/SCRATCH/511017/C36404-P96

>  <fragmenstein_runtime>  (82) 
28.58995795249939

>  <fragmenstein_outcome>  (82) 
too moved

>  <fragmenstein_mode>  (82) 
expansion

>  <fragmenstein_error>  (82) 


$$$$
C36406-P95
     RDKit          3D

 47 48  0  0  0  0  0  0  0  0999 V2000
   -9.6876   -4.5983    6.1896 C   0  0  0  0  0  0  0  0  0  0  0  0
   -9.7796   -6.0317    6.4668 O   0  0  0  0  0  0  0  0  0  0  0  0
   -9.1907   -6.4763    7.7533 C   0  0  0  0  0  0  0  0  0  0  0  0
   -8.5552   -8.4018    8.4555 C   0  0  0  0  0  0  0  0  0  0  0  0
   -6.9973   -7.9937    7.6630 O   0  0  0  0  0  0  0  0  0  0  0  0
   -6.8114   -6.6437    6.2973 C   0  0  0  0  0  0  0  0  0  0  0  0
   -8.8724   -9.7343   10.0925 C   0  0  0  0  0  0  0  0  0  0  0  0
   -8.9210   -9.1032   11.0894 O   0  0  0  0  0  0  0  0  0  0  0  0
   -8.9423  -11.6299   10.5274 N   0  0  0  0  0  0  0  0  0  0  0  0
  -10.2771  -12.0714   10.5312 C   0  0  0  0  0  0  0  0  0  0  0  0
  -10.7746  -11.2571   11.6747 C   0  0  0  0  0  0  0  0  0  0  0  0
   -9.6136  -11.3607   12.7931 C   0  0  0  0  0  0  0  0  0  0  0  0
   -8.9245  -12.6522   12.3512 C   0  0  0  0  0  0  0  0  0  0  0  0
   -8.8901  -14.0059   14.0764 C   0  0  0  0  0  0  0  0  0  0  0  0
   -8.0896  -15.6471   15.1264 N   0  0  0  0  0  0  0  0  0  0  0  0
   -7.1521  -14.9021   15.2337 C   0  0  0  0  0  0  0  0  0  0  0  0
   -8.4827  -16.3956   16.8337 C   0  0  0  0  0  0  0  0  0  0  0  0
   -9.2372  -15.9938   17.7077 O   0  0  0  0  0  0  0  0  0  0  0  0
   -7.9268  -17.7815   17.2492 C   0  0  0  0  0  0  0  0  0  0  0  0
   -7.6223  -18.1456   18.6563 C   0  0  0  0  0  0  0  0  0  0  0  0
   -7.7977  -19.4969   18.8108 C   0  0  0  0  0  0  0  0  0  0  0  0
   -8.2948  -19.9064   17.6216 N   0  0  0  0  0  0  0  0  0  0  0  0
   -8.4788  -18.9206   16.7237 N   0  0  0  0  0  0  0  0  0  0  0  0
   -8.6732   -4.2175    6.3354 H   0  0  0  0  0  0  0  0  0  0  0  0
   -9.9814   -4.4378    5.1511 H   0  0  0  0  0  0  0  0  0  0  0  0
  -10.3671   -3.9960    6.7969 H   0  0  0  0  0  0  0  0  0  0  0  0
   -9.3711   -5.5487    8.3846 H   0  0  0  0  0  0  0  0  0  0  0  0
   -8.2084   -5.9324    7.7135 H   0  0  0  0  0  0  0  0  0  0  0  0
   -7.8178   -8.1182    9.2324 H   0  0  0  0  0  0  0  0  0  0  0  0
   -6.4893   -7.3949    5.5954 H   0  0  0  0  0  0  0  0  0  0  0  0
   -6.2601   -5.6887    6.4260 H   0  0  0  0  0  0  0  0  0  0  0  0
   -7.6261   -5.9500    6.1863 H   0  0  0  0  0  0  0  0  0  0  0  0
  -10.7440  -11.6854    9.6158 H   0  0  0  0  0  0  0  0  0  0  0  0
  -10.4454  -13.1502   10.4755 H   0  0  0  0  0  0  0  0  0  0  0  0
  -10.9858  -10.2144   11.4416 H   0  0  0  0  0  0  0  0  0  0  0  0
  -11.7569  -11.7078   11.8008 H   0  0  0  0  0  0  0  0  0  0  0  0
   -9.7940  -11.2551   13.8663 H   0  0  0  0  0  0  0  0  0  0  0  0
   -8.9472  -10.5120   12.7132 H   0  0  0  0  0  0  0  0  0  0  0  0
   -9.5727  -13.4432   11.9652 H   0  0  0  0  0  0  0  0  0  0  0  0
   -9.1401  -13.2336   14.7713 H   0  0  0  0  0  0  0  0  0  0  0  0
   -9.8283  -14.5142   13.8123 H   0  0  0  0  0  0  0  0  0  0  0  0
   -6.6310  -15.4292   16.0841 H   0  0  0  0  0  0  0  0  0  0  0  0
   -7.1175  -14.2345   16.0984 H   0  0  0  0  0  0  0  0  0  0  0  0
   -6.9046  -15.8403   14.7106 H   0  0  0  0  0  0  0  0  0  0  0  0
   -7.4140  -17.4769   19.4760 H   0  0  0  0  0  0  0  0  0  0  0  0
   -7.6953  -20.1622   19.6561 H   0  0  0  0  0  0  0  0  0  0  0  0
   -8.5970  -20.8407   17.3652 H   0  0  0  0  0  0  0  0  0  0  0  0
  1  2  1  0
  2  3  1  0
  3  4  1  0
  4  5  1  0
  5  6  1  0
  4  7  1  0
  7  8  2  0
  7  9  1  0
  9 10  1  0
 10 11  1  0
 11 12  1  0
 12 13  1  0
 13 14  1  0
 14 15  1  0
 15 16  1  0
 15 17  1  0
 17 18  2  0
 17 19  1  0
 19 20  1  0
 20 21  2  0
 21 22  1  0
 22 23  1  0
 13  9  1  0
 23 19  2  0
  1 24  1  0
  1 25  1  0
  1 26  1  0
  3 27  1  0
  3 28  1  0
  4 29  1  0
  6 30  1  0
  6 31  1  0
  6 32  1  0
 10 33  1  0
 10 34  1  0
 11 35  1  0
 11 36  1  0
 12 37  1  0
 12 38  1  0
 13 39  1  0
 14 40  1  0
 14 41  1  0
 16 42  1  0
 16 43  1  0
 16 44  1  0
 20 45  1  0
 21 46  1  0
 22 47  1  0
M  END
>  <Energy>  (83) 
1503.4759995577376

>  <compound_id>  (83) 
36406

>  <target_id>  (83) 
1

>  <reference_id>  (83) 
95

>  <inspiration_ids>  (83) 
[95, 96]

>  <energy_score>  (83) 
1341.4189924778257

>  <distance_score>  (83) 
11.26152528134197

>  <path>  (83) 
/opt/xchem-fragalysis-2/maxwin/BulkDock/SCRATCH/511017/C36406-P95/C36406-P95.minimised.mol

>  <scratch_subdir>  (83) 
/opt/xchem-fragalysis-2/maxwin/BulkDock/SCRATCH/511017/C36406-P95

>  <fragmenstein_runtime>  (83) 
19.997555255889893

>  <fragmenstein_outcome>  (83) 
too moved

>  <fragmenstein_mode>  (83) 
expansion

>  <fragmenstein_error>  (83) 


$$$$
C36406-P96
     RDKit          3D

 47 48  0  0  0  0  0  0  0  0999 V2000
  -14.3883   -4.7271   11.1103 C   0  0  0  0  0  0  0  0  0  0  0  0
  -13.3637   -5.1936   10.2335 O   0  0  0  0  0  0  0  0  0  0  0  0
  -13.1714   -6.6106   10.3974 C   0  0  0  0  0  0  0  0  0  0  0  0
  -12.0897   -7.4516    9.1511 C   0  0  0  0  0  0  0  0  0  0  0  0
  -12.0247   -6.3663    7.9766 O   0  0  0  0  0  0  0  0  0  0  0  0
  -11.3710   -6.2056    6.6748 C   0  0  0  0  0  0  0  0  0  0  0  0
  -11.2677   -9.7343    9.2399 C   0  0  0  0  0  0  0  0  0  0  0  0
  -11.6109  -10.5365   10.1037 O   0  0  0  0  0  0  0  0  0  0  0  0
  -10.1683  -10.4283    8.0908 N   0  0  0  0  0  0  0  0  0  0  0  0
   -8.6867  -10.2269    8.5366 C   0  0  0  0  0  0  0  0  0  0  0  0
   -7.6550  -10.9888    7.6954 C   0  0  0  0  0  0  0  0  0  0  0  0
   -8.5409  -11.8567    6.8761 C   0  0  0  0  0  0  0  0  0  0  0  0
   -9.6386  -11.8552    7.8858 C   0  0  0  0  0  0  0  0  0  0  0  0
  -10.7647  -12.9681    7.7285 C   0  0  0  0  0  0  0  0  0  0  0  0
  -10.7617  -13.9449    9.0104 N   0  0  0  0  0  0  0  0  0  0  0  0
  -11.7288  -14.7065    8.1618 C   0  0  0  0  0  0  0  0  0  0  0  0
   -9.7375  -14.8326    9.5189 C   0  0  0  0  0  0  0  0  0  0  0  0
   -8.6639  -15.1300    9.0592 O   0  0  0  0  0  0  0  0  0  0  0  0
  -10.0980  -15.5406   10.8404 C   0  0  0  0  0  0  0  0  0  0  0  0
   -9.1749  -16.2935   11.6606 C   0  0  0  0  0  0  0  0  0  0  0  0
   -9.9029  -16.8472   12.6862 C   0  0  0  0  0  0  0  0  0  0  0  0
  -11.1822  -16.4513   12.4555 N   0  0  0  0  0  0  0  0  0  0  0  0
  -11.3312  -15.6394   11.3880 N   0  0  0  0  0  0  0  0  0  0  0  0
  -14.6646   -3.7134   10.8134 H   0  0  0  0  0  0  0  0  0  0  0  0
  -15.2900   -5.3441   11.0368 H   0  0  0  0  0  0  0  0  0  0  0  0
  -14.0264   -4.7244   12.1423 H   0  0  0  0  0  0  0  0  0  0  0  0
  -12.7080   -6.6972   11.3936 H   0  0  0  0  0  0  0  0  0  0  0  0
  -14.1401   -7.1310   10.4495 H   0  0  0  0  0  0  0  0  0  0  0  0
  -11.3961   -6.5963    9.6292 H   0  0  0  0  0  0  0  0  0  0  0  0
  -10.2888   -6.3700    6.7042 H   0  0  0  0  0  0  0  0  0  0  0  0
  -11.4987   -5.1655    6.3466 H   0  0  0  0  0  0  0  0  0  0  0  0
  -11.8152   -6.8070    5.8835 H   0  0  0  0  0  0  0  0  0  0  0  0
   -8.5981  -10.4275    9.6169 H   0  0  0  0  0  0  0  0  0  0  0  0
   -8.4077   -9.1875    8.4263 H   0  0  0  0  0  0  0  0  0  0  0  0
   -7.0046  -11.5764    8.3560 H   0  0  0  0  0  0  0  0  0  0  0  0
   -7.0007  -10.3727    7.0950 H   0  0  0  0  0  0  0  0  0  0  0  0
   -8.1051  -12.8403    6.6846 H   0  0  0  0  0  0  0  0  0  0  0  0
   -8.8493  -11.3936    5.9345 H   0  0  0  0  0  0  0  0  0  0  0  0
   -9.2537  -12.2022    8.8669 H   0  0  0  0  0  0  0  0  0  0  0  0
  -11.7282  -12.4442    7.6601 H   0  0  0  0  0  0  0  0  0  0  0  0
  -10.4929  -13.5012    6.8054 H   0  0  0  0  0  0  0  0  0  0  0  0
  -12.0866  -15.5384    8.7845 H   0  0  0  0  0  0  0  0  0  0  0  0
  -11.2611  -15.2238    7.3109 H   0  0  0  0  0  0  0  0  0  0  0  0
  -12.6542  -14.1693    7.9115 H   0  0  0  0  0  0  0  0  0  0  0  0
   -8.1170  -16.4135   11.4717 H   0  0  0  0  0  0  0  0  0  0  0  0
   -9.6336  -17.4883   13.5125 H   0  0  0  0  0  0  0  0  0  0  0  0
  -12.0158  -16.7004   12.9756 H   0  0  0  0  0  0  0  0  0  0  0  0
  1  2  1  0
  2  3  1  0
  3  4  1  0
  4  5  1  0
  5  6  1  0
  4  7  1  0
  7  8  2  0
  7  9  1  0
  9 10  1  0
 10 11  1  0
 11 12  1  0
 12 13  1  0
 13 14  1  0
 14 15  1  0
 15 16  1  0
 15 17  1  0
 17 18  2  0
 17 19  1  0
 19 20  1  0
 20 21  2  0
 21 22  1  0
 22 23  1  0
 13  9  1  0
 23 19  2  0
  1 24  1  0
  1 25  1  0
  1 26  1  0
  3 27  1  0
  3 28  1  0
  4 29  1  0
  6 30  1  0
  6 31  1  0
  6 32  1  0
 10 33  1  0
 10 34  1  0
 11 35  1  0
 11 36  1  0
 12 37  1  0
 12 38  1  0
 13 39  1  0
 14 40  1  0
 14 41  1  0
 16 42  1  0
 16 43  1  0
 16 44  1  0
 20 45  1  0
 21 46  1  0
 22 47  1  0
M  END
>  <Energy>  (84) 
719.77388115535484

>  <compound_id>  (84) 
36406

>  <target_id>  (84) 
1

>  <reference_id>  (84) 
96

>  <inspiration_ids>  (84) 
[95, 96]

>  <energy_score>  (84) 
557.7168740754742

>  <distance_score>  (84) 
13.664724639068604

>  <path>  (84) 
/opt/xchem-fragalysis-2/maxwin/BulkDock/SCRATCH/511017/C36406-P96/C36406-P96.minimised.mol

>  <scratch_subdir>  (84) 
/opt/xchem-fragalysis-2/maxwin/BulkDock/SCRATCH/511017/C36406-P96

>  <fragmenstein_runtime>  (84) 
19.313268661499023

>  <fragmenstein_outcome>  (84) 
too moved

>  <fragmenstein_mode>  (84) 
expansion

>  <fragmenstein_error>  (84) 


$$$$
C36407-P95
     RDKit          3D

 44 45  0  0  0  0  0  0  0  0999 V2000
   -8.1046   -3.1411    7.3735 C   0  0  0  0  0  0  0  0  0  0  0  0
   -9.0191   -4.2221    7.5061 O   0  0  0  0  0  0  0  0  0  0  0  0
   -8.5834   -5.4405    6.8743 C   0  0  0  0  0  0  0  0  0  0  0  0
   -9.9078   -6.6357    6.2335 C   0  0  0  0  0  0  0  0  0  0  0  0
  -10.4635   -5.7062    5.1669 O   0  0  0  0  0  0  0  0  0  0  0  0
  -10.1535   -4.3036    5.2138 C   0  0  0  0  0  0  0  0  0  0  0  0
  -10.3745   -8.6484    6.4596 C   0  0  0  0  0  0  0  0  0  0  0  0
  -10.2822   -9.2571    5.4419 O   0  0  0  0  0  0  0  0  0  0  0  0
  -10.8235   -9.4307    7.8888 N   0  0  0  0  0  0  0  0  0  0  0  0
   -9.5915   -9.9312    8.6354 C   0  0  0  0  0  0  0  0  0  0  0  0
   -9.8316  -10.5091    9.9787 C   0  0  0  0  0  0  0  0  0  0  0  0
  -11.1618  -11.0453    9.7380 C   0  0  0  0  0  0  0  0  0  0  0  0
  -11.3054  -10.9556    8.1870 C   0  0  0  0  0  0  0  0  0  0  0  0
  -12.8124  -11.4736    8.0281 C   0  0  0  0  0  0  0  0  0  0  0  0
  -13.0591  -12.5895    9.0408 N   0  0  0  0  0  0  0  0  0  0  0  0
  -13.9517  -12.6574   10.1835 C   0  0  0  0  0  0  0  0  0  0  0  0
  -14.7806  -11.8850   10.5726 O   0  0  0  0  0  0  0  0  0  0  0  0
  -13.6950  -13.8883   11.0796 C   0  0  0  0  0  0  0  0  0  0  0  0
  -14.4246  -14.2484   12.2742 C   0  0  0  0  0  0  0  0  0  0  0  0
  -13.7211  -15.2583   12.8906 C   0  0  0  0  0  0  0  0  0  0  0  0
  -12.6469  -15.4782   12.0874 N   0  0  0  0  0  0  0  0  0  0  0  0
  -12.6150  -14.7005   10.9728 N   0  0  0  0  0  0  0  0  0  0  0  0
   -8.2637   -2.4494    8.2031 H   0  0  0  0  0  0  0  0  0  0  0  0
   -7.0674   -3.4840    7.3680 H   0  0  0  0  0  0  0  0  0  0  0  0
   -8.2968   -2.5925    6.4480 H   0  0  0  0  0  0  0  0  0  0  0  0
   -8.0083   -5.8721    7.6606 H   0  0  0  0  0  0  0  0  0  0  0  0
   -7.8240   -5.1914    6.1300 H   0  0  0  0  0  0  0  0  0  0  0  0
  -10.2140   -6.3811    7.1385 H   0  0  0  0  0  0  0  0  0  0  0  0
  -10.5376   -3.7821    4.3432 H   0  0  0  0  0  0  0  0  0  0  0  0
   -9.0987   -4.0734    5.0745 H   0  0  0  0  0  0  0  0  0  0  0  0
  -10.5870   -3.8312    6.0950 H   0  0  0  0  0  0  0  0  0  0  0  0
   -8.8807   -9.1085    8.7454 H   0  0  0  0  0  0  0  0  0  0  0  0
   -9.0949  -10.7323    8.0702 H   0  0  0  0  0  0  0  0  0  0  0  0
   -9.1517  -11.3452   10.1483 H   0  0  0  0  0  0  0  0  0  0  0  0
   -9.7788   -9.8282   10.8227 H   0  0  0  0  0  0  0  0  0  0  0  0
  -11.9173  -10.4311   10.2450 H   0  0  0  0  0  0  0  0  0  0  0  0
  -11.1849  -12.0565   10.1536 H   0  0  0  0  0  0  0  0  0  0  0  0
  -10.6957  -11.6690    7.6104 H   0  0  0  0  0  0  0  0  0  0  0  0
  -12.9826  -11.8735    7.0252 H   0  0  0  0  0  0  0  0  0  0  0  0
  -13.5210  -10.6662    8.2358 H   0  0  0  0  0  0  0  0  0  0  0  0
  -12.5445  -13.4658    8.9692 H   0  0  0  0  0  0  0  0  0  0  0  0
  -15.3133  -13.7558   12.6460 H   0  0  0  0  0  0  0  0  0  0  0  0
  -13.8730  -15.7962   13.8154 H   0  0  0  0  0  0  0  0  0  0  0  0
  -11.8917  -16.1413   12.2274 H   0  0  0  0  0  0  0  0  0  0  0  0
  1  2  1  0
  2  3  1  0
  3  4  1  0
  4  5  1  0
  5  6  1  0
  4  7  1  0
  7  8  2  0
  7  9  1  0
  9 10  1  0
 10 11  1  0
 11 12  1  0
 12 13  1  0
 13 14  1  0
 14 15  1  0
 15 16  1  0
 16 17  2  0
 16 18  1  0
 18 19  1  0
 19 20  2  0
 20 21  1  0
 21 22  1  0
 13  9  1  0
 22 18  2  0
  1 23  1  0
  1 24  1  0
  1 25  1  0
  3 26  1  0
  3 27  1  0
  4 28  1  0
  6 29  1  0
  6 30  1  0
  6 31  1  0
 10 32  1  0
 10 33  1  0
 11 34  1  0
 11 35  1  0
 12 36  1  0
 12 37  1  0
 13 38  1  0
 14 39  1  0
 14 40  1  0
 15 41  1  0
 19 42  1  0
 20 43  1  0
 21 44  1  0
M  END
>  <Energy>  (85) 
395.07724421973035

>  <compound_id>  (85) 
36407

>  <target_id>  (85) 
1

>  <reference_id>  (85) 
95

>  <inspiration_ids>  (85) 
[95, 96]

>  <energy_score>  (85) 
236.5354053149158

>  <distance_score>  (85) 
13.577839489072385

>  <path>  (85) 
/opt/xchem-fragalysis-2/maxwin/BulkDock/SCRATCH/511017/C36407-P95/C36407-P95.minimised.mol

>  <scratch_subdir>  (85) 
/opt/xchem-fragalysis-2/maxwin/BulkDock/SCRATCH/511017/C36407-P95

>  <fragmenstein_runtime>  (85) 
21.20394492149353

>  <fragmenstein_outcome>  (85) 
too moved

>  <fragmenstein_mode>  (85) 
expansion

>  <fragmenstein_error>  (85) 


$$$$
C36407-P96
     RDKit          3D

 44 45  0  0  0  0  0  0  0  0999 V2000
  -10.8103   -2.1530    5.8762 C   0  0  0  0  0  0  0  0  0  0  0  0
   -9.7920   -2.3605    6.8566 O   0  0  0  0  0  0  0  0  0  0  0  0
  -10.0577   -1.6715    8.1183 C   0  0  0  0  0  0  0  0  0  0  0  0
   -8.9862   -1.6804    9.7179 C   0  0  0  0  0  0  0  0  0  0  0  0
   -7.4982   -1.3292    8.6581 O   0  0  0  0  0  0  0  0  0  0  0  0
   -7.3767   -1.6328    6.9012 C   0  0  0  0  0  0  0  0  0  0  0  0
   -9.0056   -2.8405   11.5498 C   0  0  0  0  0  0  0  0  0  0  0  0
   -8.4627   -2.1912   12.4508 O   0  0  0  0  0  0  0  0  0  0  0  0
   -9.6813   -4.6731   11.5635 N   0  0  0  0  0  0  0  0  0  0  0  0
  -11.2027   -4.8597   11.9808 C   0  0  0  0  0  0  0  0  0  0  0  0
  -11.9966   -6.0234   12.3247 C   0  0  0  0  0  0  0  0  0  0  0  0
  -11.0137   -6.5057   13.2348 C   0  0  0  0  0  0  0  0  0  0  0  0
   -9.5893   -6.0962   12.9360 C   0  0  0  0  0  0  0  0  0  0  0  0
   -8.6111   -7.0313   14.4058 C   0  0  0  0  0  0  0  0  0  0  0  0
   -8.6999   -8.5590   15.4795 N   0  0  0  0  0  0  0  0  0  0  0  0
   -7.9765  -10.1533   15.2757 C   0  0  0  0  0  0  0  0  0  0  0  0
   -7.2192  -10.5028   14.4329 O   0  0  0  0  0  0  0  0  0  0  0  0
   -8.3854  -11.4178   16.1907 C   0  0  0  0  0  0  0  0  0  0  0  0
   -8.8404  -11.6030   17.4441 C   0  0  0  0  0  0  0  0  0  0  0  0
   -9.2941  -12.8733   17.7611 C   0  0  0  0  0  0  0  0  0  0  0  0
   -8.9333  -13.3499   16.6258 N   0  0  0  0  0  0  0  0  0  0  0  0
   -9.1297  -12.4725   15.7367 N   0  0  0  0  0  0  0  0  0  0  0  0
  -11.7686   -2.5511    6.2222 H   0  0  0  0  0  0  0  0  0  0  0  0
  -10.9038   -1.0884    5.6426 H   0  0  0  0  0  0  0  0  0  0  0  0
  -10.5187   -2.6864    4.9676 H   0  0  0  0  0  0  0  0  0  0  0  0
  -10.1272   -0.6706    7.7708 H   0  0  0  0  0  0  0  0  0  0  0  0
  -11.1127   -1.8428    8.2761 H   0  0  0  0  0  0  0  0  0  0  0  0
   -8.3255   -2.3608    9.5065 H   0  0  0  0  0  0  0  0  0  0  0  0
   -7.1680   -2.6624    6.6389 H   0  0  0  0  0  0  0  0  0  0  0  0
   -8.2133   -1.2706    6.3051 H   0  0  0  0  0  0  0  0  0  0  0  0
   -6.5393   -1.0434    6.5267 H   0  0  0  0  0  0  0  0  0  0  0  0
  -11.4760   -4.2299   12.8305 H   0  0  0  0  0  0  0  0  0  0  0  0
  -11.7758   -4.8414   11.0588 H   0  0  0  0  0  0  0  0  0  0  0  0
  -12.9497   -5.7784   12.8107 H   0  0  0  0  0  0  0  0  0  0  0  0
  -12.2621   -6.6365   11.4786 H   0  0  0  0  0  0  0  0  0  0  0  0
  -11.3010   -6.2459   14.2589 H   0  0  0  0  0  0  0  0  0  0  0  0
  -11.0006   -7.5186   12.8677 H   0  0  0  0  0  0  0  0  0  0  0  0
   -9.5799   -6.7598   12.1441 H   0  0  0  0  0  0  0  0  0  0  0  0
   -8.7587   -7.8532   13.7400 H   0  0  0  0  0  0  0  0  0  0  0  0
   -7.6028   -6.6326   14.5340 H   0  0  0  0  0  0  0  0  0  0  0  0
   -9.2420   -8.5353   16.3354 H   0  0  0  0  0  0  0  0  0  0  0  0
   -9.1505  -10.6501   17.7768 H   0  0  0  0  0  0  0  0  0  0  0  0
   -9.8271  -13.3924   18.5389 H   0  0  0  0  0  0  0  0  0  0  0  0
   -8.6289  -14.2525   16.2988 H   0  0  0  0  0  0  0  0  0  0  0  0
  1  2  1  0
  2  3  1  0
  3  4  1  0
  4  5  1  0
  5  6  1  0
  4  7  1  0
  7  8  2  0
  7  9  1  0
  9 10  1  0
 10 11  1  0
 11 12  1  0
 12 13  1  0
 13 14  1  0
 14 15  1  0
 15 16  1  0
 16 17  2  0
 16 18  1  0
 18 19  1  0
 19 20  2  0
 20 21  1  0
 21 22  1  0
 13  9  1  0
 22 18  2  0
  1 23  1  0
  1 24  1  0
  1 25  1  0
  3 26  1  0
  3 27  1  0
  4 28  1  0
  6 29  1  0
  6 30  1  0
  6 31  1  0
 10 32  1  0
 10 33  1  0
 11 34  1  0
 11 35  1  0
 12 36  1  0
 12 37  1  0
 13 38  1  0
 14 39  1  0
 14 40  1  0
 15 41  1  0
 19 42  1  0
 20 43  1  0
 21 44  1  0
M  END
>  <Energy>  (86) 
1017.9161180456882

>  <compound_id>  (86) 
36407

>  <target_id>  (86) 
1

>  <reference_id>  (86) 
96

>  <inspiration_ids>  (86) 
[95, 96]

>  <energy_score>  (86) 
859.3742791408727

>  <distance_score>  (86) 
11.473908597821167

>  <path>  (86) 
/opt/xchem-fragalysis-2/maxwin/BulkDock/SCRATCH/511017/C36407-P96/C36407-P96.minimised.mol

>  <scratch_subdir>  (86) 
/opt/xchem-fragalysis-2/maxwin/BulkDock/SCRATCH/511017/C36407-P96

>  <fragmenstein_runtime>  (86) 
16.521419048309326

>  <fragmenstein_outcome>  (86) 
too moved

>  <fragmenstein_mode>  (86) 
expansion

>  <fragmenstein_error>  (86) 


$$$$
C14119-P95
     RDKit          3D

 50 51  0  0  0  0  0  0  0  0999 V2000
   -7.7819   -2.0784    5.2844 C   0  0  0  0  0  0  0  0  0  0  0  0
   -8.5574   -3.2971    5.7576 C   0  0  0  0  0  0  0  0  0  0  0  0
   -9.3579   -3.0503    7.0351 C   0  0  0  0  0  0  0  0  0  0  0  0
   -8.8598   -4.1625    7.9473 C   0  0  0  0  0  0  0  0  0  0  0  0
   -8.4576   -5.3105    7.0982 N   0  0  0  0  0  0  0  0  0  0  0  0
   -9.7202   -6.0981    6.4797 C   0  0  0  0  0  0  0  0  0  0  0  0
  -10.0371   -8.0455    6.5383 C   0  0  0  0  0  0  0  0  0  0  0  0
  -10.5933   -8.4416    5.5755 O   0  0  0  0  0  0  0  0  0  0  0  0
   -9.5056   -8.9883    7.9120 N   0  0  0  0  0  0  0  0  0  0  0  0
   -9.7490  -10.7196    8.3069 C   0  0  0  0  0  0  0  0  0  0  0  0
  -10.3938  -12.0068    9.9110 C   0  0  0  0  0  0  0  0  0  0  0  0
  -10.2034  -13.3225   11.3847 N   0  0  0  0  0  0  0  0  0  0  0  0
   -9.8694  -12.1665   12.1203 C   0  0  0  0  0  0  0  0  0  0  0  0
  -11.4515  -14.2756   12.2687 C   0  0  0  0  0  0  0  0  0  0  0  0
  -12.6582  -14.1862   12.1573 O   0  0  0  0  0  0  0  0  0  0  0  0
  -11.0790  -15.4555   13.4528 C   0  0  0  0  0  0  0  0  0  0  0  0
  -12.6332  -16.0090   14.6340 C   0  0  0  0  0  0  0  0  0  0  0  0
  -14.2199  -17.3262   15.1274 C   0  0  0  0  0  0  0  0  0  0  0  0
  -14.4802  -18.8434   14.8139 C   0  0  0  0  0  0  0  0  0  0  0  0
  -15.8286  -19.2812   14.9595 C   0  0  0  0  0  0  0  0  0  0  0  0
  -16.6290  -18.2527   15.1016 N   0  0  0  0  0  0  0  0  0  0  0  0
  -15.8367  -17.1903   14.8502 N   0  0  0  0  0  0  0  0  0  0  0  0
   -7.6454   -4.4588    6.1643 C   0  0  0  0  0  0  0  0  0  0  0  0
   -8.4656   -1.2616    5.0313 H   0  0  0  0  0  0  0  0  0  0  0  0
   -7.1940   -2.3185    4.3926 H   0  0  0  0  0  0  0  0  0  0  0  0
   -7.0937   -1.7154    6.0554 H   0  0  0  0  0  0  0  0  0  0  0  0
   -9.2408   -3.6083    4.9584 H   0  0  0  0  0  0  0  0  0  0  0  0
  -10.4307   -3.1332    6.8371 H   0  0  0  0  0  0  0  0  0  0  0  0
   -9.1707   -2.0653    7.4752 H   0  0  0  0  0  0  0  0  0  0  0  0
   -9.4342   -4.4276    8.8135 H   0  0  0  0  0  0  0  0  0  0  0  0
   -7.9674   -3.7736    8.4223 H   0  0  0  0  0  0  0  0  0  0  0  0
   -9.8830   -5.9402    5.4183 H   0  0  0  0  0  0  0  0  0  0  0  0
  -10.5064   -5.3596    6.4722 H   0  0  0  0  0  0  0  0  0  0  0  0
   -8.9798   -8.3941    8.5526 H   0  0  0  0  0  0  0  0  0  0  0  0
  -10.3298   -9.8798    8.9985 H   0  0  0  0  0  0  0  0  0  0  0  0
   -8.8856  -11.1217    7.7709 H   0  0  0  0  0  0  0  0  0  0  0  0
  -11.3267  -11.5966    9.9368 H   0  0  0  0  0  0  0  0  0  0  0  0
  -10.2424  -12.8427    9.2376 H   0  0  0  0  0  0  0  0  0  0  0  0
  -10.3067  -11.1932   12.1586 H   0  0  0  0  0  0  0  0  0  0  0  0
   -9.7712  -12.4901   13.1614 H   0  0  0  0  0  0  0  0  0  0  0  0
   -8.7945  -12.1369   11.9644 H   0  0  0  0  0  0  0  0  0  0  0  0
  -10.2965  -14.8970   13.9621 H   0  0  0  0  0  0  0  0  0  0  0  0
  -10.6190  -16.3431   13.0168 H   0  0  0  0  0  0  0  0  0  0  0  0
  -12.8217  -15.0093   15.1152 H   0  0  0  0  0  0  0  0  0  0  0  0
  -12.9688  -15.4487   13.8185 H   0  0  0  0  0  0  0  0  0  0  0  0
  -13.7885  -19.5696   14.4762 H   0  0  0  0  0  0  0  0  0  0  0  0
  -16.2237  -20.2875   14.9158 H   0  0  0  0  0  0  0  0  0  0  0  0
  -16.2438  -16.2612   14.8286 H   0  0  0  0  0  0  0  0  0  0  0  0
   -7.0989   -4.9288    5.3530 H   0  0  0  0  0  0  0  0  0  0  0  0
   -6.7927   -4.0582    6.7385 H   0  0  0  0  0  0  0  0  0  0  0  0
  1  2  1  0
  2  3  1  0
  3  4  1  0
  4  5  1  0
  5  6  1  0
  6  7  1  0
  7  8  2  0
  7  9  1  0
  9 10  1  0
 10 11  1  0
 11 12  1  0
 12 13  1  0
 12 14  1  0
 14 15  2  0
 14 16  1  0
 16 17  1  0
 17 18  1  0
 18 19  2  0
 19 20  1  0
 20 21  2  0
 21 22  1  0
  5 23  1  0
 23  2  1  0
 22 18  1  0
  1 24  1  0
  1 25  1  0
  1 26  1  0
  2 27  1  0
  3 28  1  0
  3 29  1  0
  4 30  1  0
  4 31  1  0
  6 32  1  0
  6 33  1  0
  9 34  1  0
 10 35  1  0
 10 36  1  0
 11 37  1  0
 11 38  1  0
 13 39  1  0
 13 40  1  0
 13 41  1  0
 16 42  1  0
 16 43  1  0
 17 44  1  0
 17 45  1  0
 19 46  1  0
 20 47  1  0
 22 48  1  0
 23 49  1  0
 23 50  1  0
M  END
>  <Energy>  (87) 
951.27134219169295

>  <compound_id>  (87) 
14119

>  <target_id>  (87) 
1

>  <reference_id>  (87) 
95

>  <inspiration_ids>  (87) 
[95, 96]

>  <energy_score>  (87) 
868.8302092573047

>  <distance_score>  (87) 
10.581209969399305

>  <path>  (87) 
/opt/xchem-fragalysis-2/maxwin/BulkDock/SCRATCH/511017/C14119-P95/C14119-P95.minimised.mol

>  <scratch_subdir>  (87) 
/opt/xchem-fragalysis-2/maxwin/BulkDock/SCRATCH/511017/C14119-P95

>  <fragmenstein_runtime>  (87) 
43.88477873802185

>  <fragmenstein_outcome>  (87) 
too moved

>  <fragmenstein_mode>  (87) 
expansion

>  <fragmenstein_error>  (87) 


$$$$
C14119-P96
     RDKit          3D

 50 51  0  0  0  0  0  0  0  0999 V2000
  -15.1863   -0.5551    8.8988 C   0  0  0  0  0  0  0  0  0  0  0  0
  -15.7591   -1.8262    9.4995 C   0  0  0  0  0  0  0  0  0  0  0  0
  -15.9941   -1.7253   11.0040 C   0  0  0  0  0  0  0  0  0  0  0  0
  -15.8260   -3.1567   11.4920 C   0  0  0  0  0  0  0  0  0  0  0  0
  -14.6862   -3.5739   10.7049 N   0  0  0  0  0  0  0  0  0  0  0  0
  -14.3197   -4.9769   10.7600 C   0  0  0  0  0  0  0  0  0  0  0  0
  -13.7612   -5.5790   12.0545 C   0  0  0  0  0  0  0  0  0  0  0  0
  -14.2617   -5.3068   13.1094 O   0  0  0  0  0  0  0  0  0  0  0  0
  -12.6912   -6.5187   11.7222 N   0  0  0  0  0  0  0  0  0  0  0  0
  -11.9777   -7.4729   12.5481 C   0  0  0  0  0  0  0  0  0  0  0  0
  -11.0824   -9.2154   12.3885 C   0  0  0  0  0  0  0  0  0  0  0  0
  -10.8375  -10.7258   12.5641 N   0  0  0  0  0  0  0  0  0  0  0  0
  -11.4178  -10.7700   11.3181 C   0  0  0  0  0  0  0  0  0  0  0  0
   -9.7012  -11.4394   12.5602 C   0  0  0  0  0  0  0  0  0  0  0  0
   -8.5933  -11.1053   12.3326 O   0  0  0  0  0  0  0  0  0  0  0  0
  -10.2530  -12.9831   12.8488 C   0  0  0  0  0  0  0  0  0  0  0  0
  -10.0853  -14.5092   13.1264 C   0  0  0  0  0  0  0  0  0  0  0  0
   -8.8737  -15.3085   13.8489 C   0  0  0  0  0  0  0  0  0  0  0  0
   -8.6115  -16.6330   14.0190 C   0  0  0  0  0  0  0  0  0  0  0  0
   -8.5533  -16.7435   15.5341 C   0  0  0  0  0  0  0  0  0  0  0  0
   -7.6295  -15.8719   15.7313 N   0  0  0  0  0  0  0  0  0  0  0  0
   -8.0687  -14.8889   15.0155 N   0  0  0  0  0  0  0  0  0  0  0  0
  -14.8708   -3.0594    9.3415 C   0  0  0  0  0  0  0  0  0  0  0  0
  -15.8893    0.2761    9.0171 H   0  0  0  0  0  0  0  0  0  0  0  0
  -14.2499   -0.2687    9.3824 H   0  0  0  0  0  0  0  0  0  0  0  0
  -14.9918   -0.6849    7.8294 H   0  0  0  0  0  0  0  0  0  0  0  0
  -16.7229   -2.0303    9.0131 H   0  0  0  0  0  0  0  0  0  0  0  0
  -16.9879   -1.3291   11.2358 H   0  0  0  0  0  0  0  0  0  0  0  0
  -15.2524   -1.0703   11.4790 H   0  0  0  0  0  0  0  0  0  0  0  0
  -16.7205   -3.7504   11.2682 H   0  0  0  0  0  0  0  0  0  0  0  0
  -15.6391   -3.1800   12.5690 H   0  0  0  0  0  0  0  0  0  0  0  0
  -13.5278   -5.0814   10.0182 H   0  0  0  0  0  0  0  0  0  0  0  0
  -15.2032   -5.5854   10.5416 H   0  0  0  0  0  0  0  0  0  0  0  0
  -12.4651   -6.4294   10.7368 H   0  0  0  0  0  0  0  0  0  0  0  0
  -12.8743   -7.7077   13.1464 H   0  0  0  0  0  0  0  0  0  0  0  0
  -11.2318   -6.8118   13.0198 H   0  0  0  0  0  0  0  0  0  0  0  0
  -11.7982   -9.4582   13.1218 H   0  0  0  0  0  0  0  0  0  0  0  0
  -10.0413   -8.9119   12.5224 H   0  0  0  0  0  0  0  0  0  0  0  0
  -11.5387  -11.8058   11.0481 H   0  0  0  0  0  0  0  0  0  0  0  0
  -10.7965  -10.4687   10.4853 H   0  0  0  0  0  0  0  0  0  0  0  0
  -12.3984  -10.5321   11.5450 H   0  0  0  0  0  0  0  0  0  0  0  0
  -11.0058  -12.7962   13.5881 H   0  0  0  0  0  0  0  0  0  0  0  0
  -10.7014  -13.1328   11.8639 H   0  0  0  0  0  0  0  0  0  0  0  0
  -10.9403  -14.7668   13.6982 H   0  0  0  0  0  0  0  0  0  0  0  0
  -10.5131  -14.9742   12.2354 H   0  0  0  0  0  0  0  0  0  0  0  0
   -8.9361  -17.4808   13.4248 H   0  0  0  0  0  0  0  0  0  0  0  0
   -8.8022  -17.5159   16.2526 H   0  0  0  0  0  0  0  0  0  0  0  0
   -8.3109  -14.1218   15.6173 H   0  0  0  0  0  0  0  0  0  0  0  0
  -15.4127   -3.7762    8.7166 H   0  0  0  0  0  0  0  0  0  0  0  0
  -13.9106   -2.8399    8.8663 H   0  0  0  0  0  0  0  0  0  0  0  0
  1  2  1  0
  2  3  1  0
  3  4  1  0
  4  5  1  0
  5  6  1  0
  6  7  1  0
  7  8  2  0
  7  9  1  0
  9 10  1  0
 10 11  1  0
 11 12  1  0
 12 13  1  0
 12 14  1  0
 14 15  2  0
 14 16  1  0
 16 17  1  0
 17 18  1  0
 18 19  2  0
 19 20  1  0
 20 21  2  0
 21 22  1  0
  5 23  1  0
 23  2  1  0
 22 18  1  0
  1 24  1  0
  1 25  1  0
  1 26  1  0
  2 27  1  0
  3 28  1  0
  3 29  1  0
  4 30  1  0
  4 31  1  0
  6 32  1  0
  6 33  1  0
  9 34  1  0
 10 35  1  0
 10 36  1  0
 11 37  1  0
 11 38  1  0
 13 39  1  0
 13 40  1  0
 13 41  1  0
 16 42  1  0
 16 43  1  0
 17 44  1  0
 17 45  1  0
 19 46  1  0
 20 47  1  0
 22 48  1  0
 23 49  1  0
 23 50  1  0
M  END
>  <Energy>  (88) 
405.73979883708887

>  <compound_id>  (88) 
14119

>  <target_id>  (88) 
1

>  <reference_id>  (88) 
96

>  <inspiration_ids>  (88) 
[95, 96]

>  <energy_score>  (88) 
323.2986659027067

>  <distance_score>  (88) 
12.42298713838839

>  <path>  (88) 
/opt/xchem-fragalysis-2/maxwin/BulkDock/SCRATCH/511017/C14119-P96/C14119-P96.minimised.mol

>  <scratch_subdir>  (88) 
/opt/xchem-fragalysis-2/maxwin/BulkDock/SCRATCH/511017/C14119-P96

>  <fragmenstein_runtime>  (88) 
34.51606345176697

>  <fragmenstein_outcome>  (88) 
too moved

>  <fragmenstein_mode>  (88) 
expansion

>  <fragmenstein_error>  (88) 


$$$$
C14130-P95
     RDKit          3D

 43 44  0  0  0  0  0  0  0  0999 V2000
  -10.6070  -12.6354   11.3480 O   0  0  0  0  0  0  0  0  0  0  0  0
  -10.1104  -11.6946   11.9407 C   0  0  0  0  0  0  0  0  0  0  0  0
   -8.9142  -12.3070   13.1722 C   0  0  0  0  0  0  0  0  0  0  0  0
   -9.0714  -13.9528   14.0056 C   0  0  0  0  0  0  0  0  0  0  0  0
   -7.8611  -15.3293   14.6476 C   0  0  0  0  0  0  0  0  0  0  0  0
   -7.7150  -16.7687   14.2906 C   0  0  0  0  0  0  0  0  0  0  0  0
   -7.0295  -17.5005   15.2745 C   0  0  0  0  0  0  0  0  0  0  0  0
   -6.6809  -16.7091   16.2605 N   0  0  0  0  0  0  0  0  0  0  0  0
   -7.1265  -15.4963   15.8857 N   0  0  0  0  0  0  0  0  0  0  0  0
  -10.4101   -9.9258   11.5481 N   0  0  0  0  0  0  0  0  0  0  0  0
  -11.6325   -9.0865   10.2228 C   0  0  0  0  0  0  0  0  0  0  0  0
  -12.4200   -7.0352   10.1908 C   0  0  0  0  0  0  0  0  0  0  0  0
  -10.8010   -5.5635   10.3982 C   0  0  0  0  0  0  0  0  0  0  0  0
  -10.1236   -5.2276   12.0222 C   0  0  0  0  0  0  0  0  0  0  0  0
   -9.2181   -4.5559   11.3280 C   0  0  0  0  0  0  0  0  0  0  0  0
   -8.7409   -4.8162    9.8578 C   0  0  0  0  0  0  0  0  0  0  0  0
   -9.6975   -4.5091    9.0490 N   0  0  0  0  0  0  0  0  0  0  0  0
   -9.2701   -4.8451    7.5739 C   0  0  0  0  0  0  0  0  0  0  0  0
   -9.4225   -5.8516    6.9314 O   0  0  0  0  0  0  0  0  0  0  0  0
   -8.6629   -3.5525    6.9669 C   0  0  0  0  0  0  0  0  0  0  0  0
   -9.0035   -2.3603    7.6677 O   0  0  0  0  0  0  0  0  0  0  0  0
   -8.7983  -11.5303   13.9287 H   0  0  0  0  0  0  0  0  0  0  0  0
   -8.0190  -12.5224   12.5916 H   0  0  0  0  0  0  0  0  0  0  0  0
   -9.6871  -13.5878   14.7611 H   0  0  0  0  0  0  0  0  0  0  0  0
   -9.8644  -14.4902   13.4432 H   0  0  0  0  0  0  0  0  0  0  0  0
   -8.2798  -17.2745   13.5128 H   0  0  0  0  0  0  0  0  0  0  0  0
   -6.8308  -18.5626   15.3256 H   0  0  0  0  0  0  0  0  0  0  0  0
   -6.9166  -14.7351   16.5166 H   0  0  0  0  0  0  0  0  0  0  0  0
   -9.8206   -9.3521   12.1267 H   0  0  0  0  0  0  0  0  0  0  0  0
  -12.4588   -9.6970    9.8196 H   0  0  0  0  0  0  0  0  0  0  0  0
  -10.9549   -9.3508    9.3787 H   0  0  0  0  0  0  0  0  0  0  0  0
  -13.2870   -7.2283    9.4552 H   0  0  0  0  0  0  0  0  0  0  0  0
  -13.1137   -6.7897   11.0875 H   0  0  0  0  0  0  0  0  0  0  0  0
  -11.5012   -5.2315   11.0217 H   0  0  0  0  0  0  0  0  0  0  0  0
  -10.4120   -5.5994   13.0431 H   0  0  0  0  0  0  0  0  0  0  0  0
   -9.8497   -4.4411   12.7908 H   0  0  0  0  0  0  0  0  0  0  0  0
   -8.3557   -4.5845   12.0204 H   0  0  0  0  0  0  0  0  0  0  0  0
   -9.8696   -3.6784   11.1635 H   0  0  0  0  0  0  0  0  0  0  0  0
   -8.1712   -4.0671    9.2278 H   0  0  0  0  0  0  0  0  0  0  0  0
   -7.6824   -5.2009    9.7279 H   0  0  0  0  0  0  0  0  0  0  0  0
   -9.0417   -3.4533    5.9454 H   0  0  0  0  0  0  0  0  0  0  0  0
   -7.5743   -3.6524    6.9392 H   0  0  0  0  0  0  0  0  0  0  0  0
   -9.7188   -2.6354    8.2916 H   0  0  0  0  0  0  0  0  0  0  0  0
  1  2  2  0
  2  3  1  0
  3  4  1  0
  4  5  1  0
  5  6  2  0
  6  7  1  0
  7  8  2  0
  8  9  1  0
  2 10  1  0
 10 11  1  0
 11 12  1  0
 12 13  1  0
 13 14  1  0
 14 15  1  0
 15 16  1  0
 16 17  1  0
 17 18  1  0
 18 19  2  0
 18 20  1  0
 20 21  1  0
  9  5  1  0
 17 13  1  0
  3 22  1  0
  3 23  1  0
  4 24  1  0
  4 25  1  0
  6 26  1  0
  7 27  1  0
  9 28  1  0
 10 29  1  0
 11 30  1  0
 11 31  1  0
 12 32  1  0
 12 33  1  0
 13 34  1  0
 14 35  1  0
 14 36  1  0
 15 37  1  0
 15 38  1  0
 16 39  1  0
 16 40  1  0
 20 41  1  0
 20 42  1  0
 21 43  1  0
M  END
>  <Energy>  (89) 
974.94999752254671

>  <compound_id>  (89) 
14130

>  <target_id>  (89) 
1

>  <reference_id>  (89) 
95

>  <inspiration_ids>  (89) 
[95, 96]

>  <energy_score>  (89) 
883.4259460500969

>  <distance_score>  (89) 
11.508368985525584

>  <path>  (89) 
/opt/xchem-fragalysis-2/maxwin/BulkDock/SCRATCH/511017/C14130-P95/C14130-P95.minimised.mol

>  <scratch_subdir>  (89) 
/opt/xchem-fragalysis-2/maxwin/BulkDock/SCRATCH/511017/C14130-P95

>  <fragmenstein_runtime>  (89) 
36.65133810043335

>  <fragmenstein_outcome>  (89) 
too moved

>  <fragmenstein_mode>  (89) 
expansion

>  <fragmenstein_error>  (89) 


$$$$
C14130-P96
     RDKit          3D

 43 44  0  0  0  0  0  0  0  0999 V2000
  -14.2910   -6.9375   13.0059 O   0  0  0  0  0  0  0  0  0  0  0  0
  -14.6939   -7.2730   11.9268 C   0  0  0  0  0  0  0  0  0  0  0  0
  -16.0486   -8.1741   11.8738 C   0  0  0  0  0  0  0  0  0  0  0  0
  -15.9996   -9.7095   12.2404 C   0  0  0  0  0  0  0  0  0  0  0  0
  -17.2826  -10.3926   12.7961 C   0  0  0  0  0  0  0  0  0  0  0  0
  -18.1494  -11.2736   12.1617 C   0  0  0  0  0  0  0  0  0  0  0  0
  -18.9883  -11.8147   13.1554 C   0  0  0  0  0  0  0  0  0  0  0  0
  -18.7689  -11.2573   14.3367 N   0  0  0  0  0  0  0  0  0  0  0  0
  -17.7080  -10.4562   14.1139 N   0  0  0  0  0  0  0  0  0  0  0  0
  -14.2101   -6.9490   10.5897 N   0  0  0  0  0  0  0  0  0  0  0  0
  -13.0455   -5.9542   10.1006 C   0  0  0  0  0  0  0  0  0  0  0  0
  -12.1684   -6.0643    8.4459 C   0  0  0  0  0  0  0  0  0  0  0  0
  -11.6452   -5.4064    6.6340 C   0  0  0  0  0  0  0  0  0  0  0  0
  -10.6766   -6.3047    5.8930 C   0  0  0  0  0  0  0  0  0  0  0  0
  -10.3142   -5.5433    4.6741 C   0  0  0  0  0  0  0  0  0  0  0  0
  -11.3673   -4.4938    4.7460 C   0  0  0  0  0  0  0  0  0  0  0  0
  -12.6734   -4.9437    5.3446 N   0  0  0  0  0  0  0  0  0  0  0  0
  -13.6484   -3.8843    5.2512 C   0  0  0  0  0  0  0  0  0  0  0  0
  -13.9234   -2.9985    6.0250 O   0  0  0  0  0  0  0  0  0  0  0  0
  -14.4479   -4.0414    3.9478 C   0  0  0  0  0  0  0  0  0  0  0  0
  -15.6474   -3.2744    3.9701 O   0  0  0  0  0  0  0  0  0  0  0  0
  -16.4954   -8.0689   10.8772 H   0  0  0  0  0  0  0  0  0  0  0  0
  -16.7496   -7.6683   12.5515 H   0  0  0  0  0  0  0  0  0  0  0  0
  -15.8115  -10.2027   11.2791 H   0  0  0  0  0  0  0  0  0  0  0  0
  -15.1218   -9.9560   12.8399 H   0  0  0  0  0  0  0  0  0  0  0  0
  -18.1307  -11.5476   11.1165 H   0  0  0  0  0  0  0  0  0  0  0  0
  -19.7646  -12.5614   13.0550 H   0  0  0  0  0  0  0  0  0  0  0  0
  -17.2874  -10.0603   14.9487 H   0  0  0  0  0  0  0  0  0  0  0  0
  -14.7410   -7.4744    9.9118 H   0  0  0  0  0  0  0  0  0  0  0  0
  -12.2769   -5.9771   10.8829 H   0  0  0  0  0  0  0  0  0  0  0  0
  -13.4980   -4.9524   10.1813 H   0  0  0  0  0  0  0  0  0  0  0  0
  -12.3639   -4.9915    8.5890 H   0  0  0  0  0  0  0  0  0  0  0  0
  -11.2548   -6.3065    8.9232 H   0  0  0  0  0  0  0  0  0  0  0  0
  -11.2582   -4.4185    6.8419 H   0  0  0  0  0  0  0  0  0  0  0  0
  -11.1992   -7.1844    5.5087 H   0  0  0  0  0  0  0  0  0  0  0  0
   -9.8007   -6.5574    6.4789 H   0  0  0  0  0  0  0  0  0  0  0  0
   -9.3090   -5.1144    4.6872 H   0  0  0  0  0  0  0  0  0  0  0  0
  -10.4004   -6.1641    3.7755 H   0  0  0  0  0  0  0  0  0  0  0  0
  -11.0242   -3.5392    5.1799 H   0  0  0  0  0  0  0  0  0  0  0  0
  -11.6012   -4.2005    3.7122 H   0  0  0  0  0  0  0  0  0  0  0  0
  -13.8385   -3.6932    3.1095 H   0  0  0  0  0  0  0  0  0  0  0  0
  -14.7166   -5.0906    3.7958 H   0  0  0  0  0  0  0  0  0  0  0  0
  -15.5102   -2.6071    4.6737 H   0  0  0  0  0  0  0  0  0  0  0  0
  1  2  2  0
  2  3  1  0
  3  4  1  0
  4  5  1  0
  5  6  2  0
  6  7  1  0
  7  8  2  0
  8  9  1  0
  2 10  1  0
 10 11  1  0
 11 12  1  0
 12 13  1  0
 13 14  1  0
 14 15  1  0
 15 16  1  0
 16 17  1  0
 17 18  1  0
 18 19  2  0
 18 20  1  0
 20 21  1  0
  9  5  1  0
 17 13  1  0
  3 22  1  0
  3 23  1  0
  4 24  1  0
  4 25  1  0
  6 26  1  0
  7 27  1  0
  9 28  1  0
 10 29  1  0
 11 30  1  0
 11 31  1  0
 12 32  1  0
 12 33  1  0
 13 34  1  0
 14 35  1  0
 14 36  1  0
 15 37  1  0
 15 38  1  0
 16 39  1  0
 16 40  1  0
 20 41  1  0
 20 42  1  0
 21 43  1  0
M  END
>  <Energy>  (90) 
272.53190905156958

>  <compound_id>  (90) 
14130

>  <target_id>  (90) 
1

>  <reference_id>  (90) 
96

>  <inspiration_ids>  (90) 
[95, 96]

>  <energy_score>  (90) 
181.00785757913332

>  <distance_score>  (90) 
14.477567815625488

>  <path>  (90) 
/opt/xchem-fragalysis-2/maxwin/BulkDock/SCRATCH/511017/C14130-P96/C14130-P96.minimised.mol

>  <scratch_subdir>  (90) 
/opt/xchem-fragalysis-2/maxwin/BulkDock/SCRATCH/511017/C14130-P96

>  <fragmenstein_runtime>  (90) 
33.70129084587097

>  <fragmenstein_outcome>  (90) 
too moved

>  <fragmenstein_mode>  (90) 
expansion

>  <fragmenstein_error>  (90) 


$$$$
C14140-P95
     RDKit          3D

 46 47  0  0  0  0  0  0  0  0999 V2000
  -10.9959   -0.1216    4.0162 C   0  0  0  0  0  0  0  0  0  0  0  0
  -10.5235   -1.0223    5.0157 O   0  0  0  0  0  0  0  0  0  0  0  0
   -9.8789   -2.1175    4.5149 C   0  0  0  0  0  0  0  0  0  0  0  0
   -9.6608   -2.3095    3.3220 O   0  0  0  0  0  0  0  0  0  0  0  0
   -9.4546   -3.0435    5.6361 C   0  0  0  0  0  0  0  0  0  0  0  0
   -7.6601   -3.3378    5.5103 S   0  0  0  0  0  0  0  0  0  0  0  0
   -7.3194   -3.8249    7.2135 C   0  0  0  0  0  0  0  0  0  0  0  0
   -7.9052   -5.1874    7.7034 C   0  0  0  0  0  0  0  0  0  0  0  0
   -8.8880   -5.6648    7.1962 O   0  0  0  0  0  0  0  0  0  0  0  0
   -6.9946   -5.7192    8.9719 N   0  0  0  0  0  0  0  0  0  0  0  0
   -7.4589   -5.1823   10.0826 C   0  0  0  0  0  0  0  0  0  0  0  0
   -7.1012   -7.4696   10.0317 C   0  0  0  0  0  0  0  0  0  0  0  0
   -6.2054   -7.7918   11.4394 C   0  0  0  0  0  0  0  0  0  0  0  0
   -7.3046   -8.6108   13.0125 C   0  0  0  0  0  0  0  0  0  0  0  0
   -8.3771   -9.6573   12.6232 N   0  0  0  0  0  0  0  0  0  0  0  0
   -9.3024   -9.8927   13.7403 C   0  0  0  0  0  0  0  0  0  0  0  0
  -10.3352   -9.3512   14.0161 O   0  0  0  0  0  0  0  0  0  0  0  0
   -8.7145  -11.3937   14.7197 C   0  0  0  0  0  0  0  0  0  0  0  0
   -8.2345  -12.0831   16.4865 C   0  0  0  0  0  0  0  0  0  0  0  0
   -7.8048  -13.2002   17.2536 C   0  0  0  0  0  0  0  0  0  0  0  0
   -8.1543  -12.9351   18.5459 C   0  0  0  0  0  0  0  0  0  0  0  0
   -7.3693  -11.9119   18.6706 N   0  0  0  0  0  0  0  0  0  0  0  0
   -7.2509  -11.4051   17.4672 N   0  0  0  0  0  0  0  0  0  0  0  0
   -8.4907   -8.5604   11.1448 C   0  0  0  0  0  0  0  0  0  0  0  0
  -10.1575    0.2987    3.4520 H   0  0  0  0  0  0  0  0  0  0  0  0
  -11.5196    0.6968    4.5181 H   0  0  0  0  0  0  0  0  0  0  0  0
  -11.7016   -0.6237    3.3470 H   0  0  0  0  0  0  0  0  0  0  0  0
   -9.6913   -2.5839    6.6005 H   0  0  0  0  0  0  0  0  0  0  0  0
  -10.0044   -3.9821    5.5443 H   0  0  0  0  0  0  0  0  0  0  0  0
   -7.7150   -3.0205    7.8399 H   0  0  0  0  0  0  0  0  0  0  0  0
   -6.2340   -3.8341    7.2833 H   0  0  0  0  0  0  0  0  0  0  0  0
   -7.6522   -4.3322    9.4705 H   0  0  0  0  0  0  0  0  0  0  0  0
   -8.5542   -4.9921   10.1633 H   0  0  0  0  0  0  0  0  0  0  0  0
   -6.9031   -4.8449   10.9377 H   0  0  0  0  0  0  0  0  0  0  0  0
   -6.7693   -8.1111    9.2179 H   0  0  0  0  0  0  0  0  0  0  0  0
   -5.4082   -8.5073   11.1751 H   0  0  0  0  0  0  0  0  0  0  0  0
   -5.5965   -6.8966   11.5877 H   0  0  0  0  0  0  0  0  0  0  0  0
   -7.5938   -8.1199   13.9355 H   0  0  0  0  0  0  0  0  0  0  0  0
   -6.5384   -9.3241   13.3818 H   0  0  0  0  0  0  0  0  0  0  0  0
   -9.6570  -11.9587   14.7077 H   0  0  0  0  0  0  0  0  0  0  0  0
   -8.2738  -11.9650   13.8875 H   0  0  0  0  0  0  0  0  0  0  0  0
   -7.2846  -14.0662   16.8407 H   0  0  0  0  0  0  0  0  0  0  0  0
   -8.3971  -13.5482   19.4048 H   0  0  0  0  0  0  0  0  0  0  0  0
   -6.6072  -10.6738   17.1861 H   0  0  0  0  0  0  0  0  0  0  0  0
   -8.0620   -9.0760   10.3880 H   0  0  0  0  0  0  0  0  0  0  0  0
   -9.4563   -8.9059   10.7872 H   0  0  0  0  0  0  0  0  0  0  0  0
  1  2  1  0
  2  3  1  0
  3  4  2  0
  3  5  1  0
  5  6  1  0
  6  7  1  0
  7  8  1  0
  8  9  2  0
  8 10  1  0
 10 11  1  0
 10 12  1  0
 12 13  1  0
 13 14  1  0
 14 15  1  0
 15 16  1  0
 16 17  2  0
 16 18  1  0
 18 19  1  0
 19 20  2  0
 20 21  1  0
 21 22  2  0
 22 23  1  0
 15 24  1  0
 24 12  1  0
 23 19  1  0
  1 25  1  0
  1 26  1  0
  1 27  1  0
  5 28  1  0
  5 29  1  0
  7 30  1  0
  7 31  1  0
 11 32  1  0
 11 33  1  0
 11 34  1  0
 12 35  1  0
 13 36  1  0
 13 37  1  0
 14 38  1  0
 14 39  1  0
 18 40  1  0
 18 41  1  0
 20 42  1  0
 21 43  1  0
 23 44  1  0
 24 45  1  0
 24 46  1  0
M  END
>  <Energy>  (91) 
816.00988340672654

>  <compound_id>  (91) 
14140

>  <target_id>  (91) 
1

>  <reference_id>  (91) 
95

>  <inspiration_ids>  (91) 
[95, 96]

>  <energy_score>  (91) 
694.2816931682144

>  <distance_score>  (91) 
10.451535089865597

>  <path>  (91) 
/opt/xchem-fragalysis-2/maxwin/BulkDock/SCRATCH/511017/C14140-P95/C14140-P95.minimised.mol

>  <scratch_subdir>  (91) 
/opt/xchem-fragalysis-2/maxwin/BulkDock/SCRATCH/511017/C14140-P95

>  <fragmenstein_runtime>  (91) 
28.526373624801636

>  <fragmenstein_outcome>  (91) 
too moved

>  <fragmenstein_mode>  (91) 
expansion

>  <fragmenstein_error>  (91) 


$$$$
C14140-P96
     RDKit          3D

 46 47  0  0  0  0  0  0  0  0999 V2000
   -9.0388  -16.7012    7.3607 C   0  0  0  0  0  0  0  0  0  0  0  0
   -7.6182  -16.7563    7.2294 O   0  0  0  0  0  0  0  0  0  0  0  0
   -7.0117  -17.5856    8.1315 C   0  0  0  0  0  0  0  0  0  0  0  0
   -7.6115  -18.2679    8.9534 O   0  0  0  0  0  0  0  0  0  0  0  0
   -5.5153  -17.6016    7.9009 C   0  0  0  0  0  0  0  0  0  0  0  0
   -4.5653  -17.3272    9.4196 S   0  0  0  0  0  0  0  0  0  0  0  0
   -4.7463  -18.9833   10.2141 C   0  0  0  0  0  0  0  0  0  0  0  0
   -4.2771  -18.9653   11.6891 C   0  0  0  0  0  0  0  0  0  0  0  0
   -3.1244  -18.7497   11.9601 O   0  0  0  0  0  0  0  0  0  0  0  0
   -5.4108  -19.2117   12.5469 N   0  0  0  0  0  0  0  0  0  0  0  0
   -6.0887  -17.9330   12.8714 C   0  0  0  0  0  0  0  0  0  0  0  0
   -5.4925  -19.3924   14.0644 C   0  0  0  0  0  0  0  0  0  0  0  0
   -4.5089  -18.7383   15.0048 C   0  0  0  0  0  0  0  0  0  0  0  0
   -5.4217  -18.6259   16.2271 C   0  0  0  0  0  0  0  0  0  0  0  0
   -6.3808  -19.7992   16.4048 N   0  0  0  0  0  0  0  0  0  0  0  0
   -7.1314  -19.6513   17.6301 C   0  0  0  0  0  0  0  0  0  0  0  0
   -8.1938  -19.1195   17.8376 O   0  0  0  0  0  0  0  0  0  0  0  0
   -6.3857  -20.3956   18.7700 C   0  0  0  0  0  0  0  0  0  0  0  0
   -7.2255  -20.7357   19.9828 C   0  0  0  0  0  0  0  0  0  0  0  0
   -7.0396  -21.6655   20.9889 C   0  0  0  0  0  0  0  0  0  0  0  0
   -8.1366  -21.4965   21.8514 C   0  0  0  0  0  0  0  0  0  0  0  0
   -8.9482  -20.5104   21.4587 N   0  0  0  0  0  0  0  0  0  0  0  0
   -8.4095  -20.1137   20.2934 N   0  0  0  0  0  0  0  0  0  0  0  0
   -6.7368  -19.4352   14.9766 C   0  0  0  0  0  0  0  0  0  0  0  0
   -9.4802  -17.6817    7.1567 H   0  0  0  0  0  0  0  0  0  0  0  0
   -9.4196  -15.9899    6.6225 H   0  0  0  0  0  0  0  0  0  0  0  0
   -9.3208  -16.3467    8.3567 H   0  0  0  0  0  0  0  0  0  0  0  0
   -5.2502  -16.7930    7.2116 H   0  0  0  0  0  0  0  0  0  0  0  0
   -5.2340  -18.5450    7.4239 H   0  0  0  0  0  0  0  0  0  0  0  0
   -4.1259  -19.7067    9.6753 H   0  0  0  0  0  0  0  0  0  0  0  0
   -5.7822  -19.3241   10.1614 H   0  0  0  0  0  0  0  0  0  0  0  0
   -7.1616  -18.0659   13.0494 H   0  0  0  0  0  0  0  0  0  0  0  0
   -5.5808  -17.2385   13.5395 H   0  0  0  0  0  0  0  0  0  0  0  0
   -6.0943  -17.3569   11.9374 H   0  0  0  0  0  0  0  0  0  0  0  0
   -5.1632  -20.4468   14.0791 H   0  0  0  0  0  0  0  0  0  0  0  0
   -3.6675  -19.4113   15.2095 H   0  0  0  0  0  0  0  0  0  0  0  0
   -4.0870  -17.7727   14.7167 H   0  0  0  0  0  0  0  0  0  0  0  0
   -5.9642  -17.6658   16.2670 H   0  0  0  0  0  0  0  0  0  0  0  0
   -4.7875  -18.6070   17.1240 H   0  0  0  0  0  0  0  0  0  0  0  0
   -5.5545  -19.7594   19.0951 H   0  0  0  0  0  0  0  0  0  0  0  0
   -5.9685  -21.3255   18.3647 H   0  0  0  0  0  0  0  0  0  0  0  0
   -6.2320  -22.3768   21.0827 H   0  0  0  0  0  0  0  0  0  0  0  0
   -8.3690  -22.0462   22.7529 H   0  0  0  0  0  0  0  0  0  0  0  0
   -8.8916  -19.4122   19.7354 H   0  0  0  0  0  0  0  0  0  0  0  0
   -7.3996  -20.2418   14.6351 H   0  0  0  0  0  0  0  0  0  0  0  0
   -7.3854  -18.5449   14.9892 H   0  0  0  0  0  0  0  0  0  0  0  0
  1  2  1  0
  2  3  1  0
  3  4  2  0
  3  5  1  0
  5  6  1  0
  6  7  1  0
  7  8  1  0
  8  9  2  0
  8 10  1  0
 10 11  1  0
 10 12  1  0
 12 13  1  0
 13 14  1  0
 14 15  1  0
 15 16  1  0
 16 17  2  0
 16 18  1  0
 18 19  1  0
 19 20  2  0
 20 21  1  0
 21 22  2  0
 22 23  1  0
 15 24  1  0
 24 12  1  0
 23 19  1  0
  1 25  1  0
  1 26  1  0
  1 27  1  0
  5 28  1  0
  5 29  1  0
  7 30  1  0
  7 31  1  0
 11 32  1  0
 11 33  1  0
 11 34  1  0
 12 35  1  0
 13 36  1  0
 13 37  1  0
 14 38  1  0
 14 39  1  0
 18 40  1  0
 18 41  1  0
 20 42  1  0
 21 43  1  0
 23 44  1  0
 24 45  1  0
 24 46  1  0
M  END
>  <Energy>  (92) 
210.58074579151423

>  <compound_id>  (92) 
14140

>  <target_id>  (92) 
1

>  <reference_id>  (92) 
96

>  <inspiration_ids>  (92) 
[95, 96]

>  <energy_score>  (92) 
88.85255555301592

>  <distance_score>  (92) 
15.310666937423834

>  <path>  (92) 
/opt/xchem-fragalysis-2/maxwin/BulkDock/SCRATCH/511017/C14140-P96/C14140-P96.minimised.mol

>  <scratch_subdir>  (92) 
/opt/xchem-fragalysis-2/maxwin/BulkDock/SCRATCH/511017/C14140-P96

>  <fragmenstein_runtime>  (92) 
54.36174178123474

>  <fragmenstein_outcome>  (92) 
too moved

>  <fragmenstein_mode>  (92) 
expansion

>  <fragmenstein_error>  (92) 


$$$$
C14142-P95
     RDKit          3D

 47 48  0  0  0  0  0  0  0  0999 V2000
   -9.9865   -1.2986    7.0933 C   0  0  0  0  0  0  0  0  0  0  0  0
   -9.2323   -2.4669    7.3778 O   0  0  0  0  0  0  0  0  0  0  0  0
   -8.5665   -2.4015    8.6581 C   0  0  0  0  0  0  0  0  0  0  0  0
   -7.8273   -3.7911    9.1516 C   0  0  0  0  0  0  0  0  0  0  0  0
   -7.0891   -4.1567    7.8191 O   0  0  0  0  0  0  0  0  0  0  0  0
   -7.8346   -4.5382    6.6908 C   0  0  0  0  0  0  0  0  0  0  0  0
   -7.2390   -5.2266   10.5326 C   0  0  0  0  0  0  0  0  0  0  0  0
   -6.7885   -6.2219    9.8496 O   0  0  0  0  0  0  0  0  0  0  0  0
   -7.4312   -5.8469   12.6072 N   0  0  0  0  0  0  0  0  0  0  0  0
   -6.1973   -5.5790   13.3670 C   0  0  0  0  0  0  0  0  0  0  0  0
   -5.2925   -6.6441   12.8770 C   0  0  0  0  0  0  0  0  0  0  0  0
   -5.9458   -7.9960   12.7982 C   0  0  0  0  0  0  0  0  0  0  0  0
   -7.2168   -7.8639   13.6450 C   0  0  0  0  0  0  0  0  0  0  0  0
   -8.2908   -9.7528   14.6244 C   0  0  0  0  0  0  0  0  0  0  0  0
   -8.6030  -11.6780   15.8246 N   0  0  0  0  0  0  0  0  0  0  0  0
   -9.8134  -12.1903   17.5150 C   0  0  0  0  0  0  0  0  0  0  0  0
  -10.5789  -11.2787   17.8635 O   0  0  0  0  0  0  0  0  0  0  0  0
   -9.9788  -13.8220   19.0042 C   0  0  0  0  0  0  0  0  0  0  0  0
  -11.0119  -15.6093   19.6043 C   0  0  0  0  0  0  0  0  0  0  0  0
  -12.1535  -15.7224   20.7839 C   0  0  0  0  0  0  0  0  0  0  0  0
  -12.6571  -16.9834   20.9998 C   0  0  0  0  0  0  0  0  0  0  0  0
  -11.9030  -17.8027   20.3199 N   0  0  0  0  0  0  0  0  0  0  0  0
  -11.3042  -17.0166   19.4030 N   0  0  0  0  0  0  0  0  0  0  0  0
   -9.3414   -0.4149    7.1029 H   0  0  0  0  0  0  0  0  0  0  0  0
  -10.8004   -1.1790    7.8149 H   0  0  0  0  0  0  0  0  0  0  0  0
  -10.4210   -1.4040    6.0955 H   0  0  0  0  0  0  0  0  0  0  0  0
   -9.3542   -2.0725    9.3374 H   0  0  0  0  0  0  0  0  0  0  0  0
   -7.7923   -1.6294    8.5603 H   0  0  0  0  0  0  0  0  0  0  0  0
   -8.7445   -4.3921    8.9738 H   0  0  0  0  0  0  0  0  0  0  0  0
   -7.9745   -3.6991    6.0060 H   0  0  0  0  0  0  0  0  0  0  0  0
   -8.7777   -5.0243    6.9401 H   0  0  0  0  0  0  0  0  0  0  0  0
   -7.1927   -5.2298    6.1517 H   0  0  0  0  0  0  0  0  0  0  0  0
   -5.6507   -4.6539   13.2980 H   0  0  0  0  0  0  0  0  0  0  0  0
   -6.4416   -5.6171   14.4327 H   0  0  0  0  0  0  0  0  0  0  0  0
   -5.1163   -6.3739   11.8438 H   0  0  0  0  0  0  0  0  0  0  0  0
   -4.4013   -6.6656   13.4929 H   0  0  0  0  0  0  0  0  0  0  0  0
   -5.2561   -8.8269   12.9399 H   0  0  0  0  0  0  0  0  0  0  0  0
   -6.1624   -7.9595   11.7465 H   0  0  0  0  0  0  0  0  0  0  0  0
   -7.1239   -7.3741   14.6276 H   0  0  0  0  0  0  0  0  0  0  0  0
   -9.3538   -9.4739   14.4968 H   0  0  0  0  0  0  0  0  0  0  0  0
   -8.2094  -10.3608   13.7211 H   0  0  0  0  0  0  0  0  0  0  0  0
   -8.1434  -12.4000   15.5869 H   0  0  0  0  0  0  0  0  0  0  0  0
   -8.9707  -14.3620   19.0997 H   0  0  0  0  0  0  0  0  0  0  0  0
   -9.4972  -13.3806   19.8818 H   0  0  0  0  0  0  0  0  0  0  0  0
  -12.3836  -14.8806   21.4251 H   0  0  0  0  0  0  0  0  0  0  0  0
  -13.4283  -17.3460   21.6675 H   0  0  0  0  0  0  0  0  0  0  0  0
  -11.2240  -17.4648   18.4978 H   0  0  0  0  0  0  0  0  0  0  0  0
  1  2  1  0
  2  3  1  0
  3  4  1  0
  4  5  1  0
  5  6  1  0
  4  7  1  0
  7  8  2  0
  7  9  1  0
  9 10  1  0
 10 11  1  0
 11 12  1  0
 12 13  1  0
 13 14  1  0
 14 15  1  0
 15 16  1  0
 16 17  2  0
 16 18  1  0
 18 19  1  0
 19 20  2  0
 20 21  1  0
 21 22  2  0
 22 23  1  0
 13  9  1  0
 23 19  1  0
  1 24  1  0
  1 25  1  0
  1 26  1  0
  3 27  1  0
  3 28  1  0
  4 29  1  0
  6 30  1  0
  6 31  1  0
  6 32  1  0
 10 33  1  0
 10 34  1  0
 11 35  1  0
 11 36  1  0
 12 37  1  0
 12 38  1  0
 13 39  1  0
 14 40  1  0
 14 41  1  0
 15 42  1  0
 18 43  1  0
 18 44  1  0
 20 45  1  0
 21 46  1  0
 23 47  1  0
M  END
>  <Energy>  (93) 
2098.4294178652199

>  <compound_id>  (93) 
14142

>  <target_id>  (93) 
1

>  <reference_id>  (93) 
95

>  <inspiration_ids>  (93) 
[95, 96]

>  <energy_score>  (93) 
1978.3557027310762

>  <distance_score>  (93) 
9.369124667757841

>  <path>  (93) 
/opt/xchem-fragalysis-2/maxwin/BulkDock/SCRATCH/511017/C14142-P95/C14142-P95.minimised.mol

>  <scratch_subdir>  (93) 
/opt/xchem-fragalysis-2/maxwin/BulkDock/SCRATCH/511017/C14142-P95

>  <fragmenstein_runtime>  (93) 
19.441826105117798

>  <fragmenstein_outcome>  (93) 
too moved

>  <fragmenstein_mode>  (93) 
expansion

>  <fragmenstein_error>  (93) 


$$$$
C14142-P96
     RDKit          3D

 47 48  0  0  0  0  0  0  0  0999 V2000
   -9.6146    4.3391    1.1902 C   0  0  0  0  0  0  0  0  0  0  0  0
   -9.0035    3.3616    2.0208 O   0  0  0  0  0  0  0  0  0  0  0  0
   -7.6135    3.6338    2.2646 C   0  0  0  0  0  0  0  0  0  0  0  0
   -7.3819    4.5567    3.4857 C   0  0  0  0  0  0  0  0  0  0  0  0
   -6.1070    5.1899    3.4938 O   0  0  0  0  0  0  0  0  0  0  0  0
   -4.9958    4.3079    3.4944 C   0  0  0  0  0  0  0  0  0  0  0  0
   -7.7053    3.7979    4.8031 C   0  0  0  0  0  0  0  0  0  0  0  0
   -7.9632    2.6202    4.7436 O   0  0  0  0  0  0  0  0  0  0  0  0
   -7.7300    4.7122    5.9309 N   0  0  0  0  0  0  0  0  0  0  0  0
   -9.0921    5.3707    6.0420 C   0  0  0  0  0  0  0  0  0  0  0  0
   -9.2290    6.3373    7.1945 C   0  0  0  0  0  0  0  0  0  0  0  0
   -8.3130    5.7204    8.1820 C   0  0  0  0  0  0  0  0  0  0  0  0
   -7.9830    4.4491    7.4424 C   0  0  0  0  0  0  0  0  0  0  0  0
   -9.0442    3.2374    7.7051 C   0  0  0  0  0  0  0  0  0  0  0  0
   -8.3522    1.7588    8.9891 N   0  0  0  0  0  0  0  0  0  0  0  0
   -7.1964   -0.1669    8.6129 C   0  0  0  0  0  0  0  0  0  0  0  0
   -7.0068   -0.6722    7.2556 O   0  0  0  0  0  0  0  0  0  0  0  0
   -5.8954   -1.2602    9.8484 C   0  0  0  0  0  0  0  0  0  0  0  0
   -4.5361   -2.9434   10.1168 C   0  0  0  0  0  0  0  0  0  0  0  0
   -4.3186   -4.5550   10.3690 C   0  0  0  0  0  0  0  0  0  0  0  0
   -3.4472   -5.1059   11.3721 C   0  0  0  0  0  0  0  0  0  0  0  0
   -2.8870   -4.1279   12.0136 N   0  0  0  0  0  0  0  0  0  0  0  0
   -3.2737   -3.0306   11.3232 N   0  0  0  0  0  0  0  0  0  0  0  0
   -9.1406    4.3527    0.2042 H   0  0  0  0  0  0  0  0  0  0  0  0
   -9.5627    5.3311    1.6468 H   0  0  0  0  0  0  0  0  0  0  0  0
  -10.6673    4.0709    1.0640 H   0  0  0  0  0  0  0  0  0  0  0  0
   -7.1455    2.6642    2.4278 H   0  0  0  0  0  0  0  0  0  0  0  0
   -7.1459    4.0533    1.3652 H   0  0  0  0  0  0  0  0  0  0  0  0
   -8.1087    5.3702    3.4102 H   0  0  0  0  0  0  0  0  0  0  0  0
   -4.1093    4.8814    3.7797 H   0  0  0  0  0  0  0  0  0  0  0  0
   -4.8304    3.9257    2.4849 H   0  0  0  0  0  0  0  0  0  0  0  0
   -5.1199    3.4910    4.2092 H   0  0  0  0  0  0  0  0  0  0  0  0
   -9.2081    5.9667    5.1264 H   0  0  0  0  0  0  0  0  0  0  0  0
   -9.9295    4.6639    5.9534 H   0  0  0  0  0  0  0  0  0  0  0  0
   -8.8958    7.3452    6.9243 H   0  0  0  0  0  0  0  0  0  0  0  0
  -10.2638    6.4029    7.5440 H   0  0  0  0  0  0  0  0  0  0  0  0
   -8.7611    5.5587    9.1664 H   0  0  0  0  0  0  0  0  0  0  0  0
   -7.4198    6.3424    8.3122 H   0  0  0  0  0  0  0  0  0  0  0  0
   -6.9939    4.1664    7.8053 H   0  0  0  0  0  0  0  0  0  0  0  0
   -9.1668    2.9401    6.6306 H   0  0  0  0  0  0  0  0  0  0  0  0
   -9.8640    3.7594    8.2645 H   0  0  0  0  0  0  0  0  0  0  0  0
   -8.4684    1.9047   10.0428 H   0  0  0  0  0  0  0  0  0  0  0  0
   -5.0033   -0.8172    9.3540 H   0  0  0  0  0  0  0  0  0  0  0  0
   -6.4530   -1.6789    8.9981 H   0  0  0  0  0  0  0  0  0  0  0  0
   -5.1014   -5.2521   10.2556 H   0  0  0  0  0  0  0  0  0  0  0  0
   -3.3523   -6.1274   11.7090 H   0  0  0  0  0  0  0  0  0  0  0  0
   -2.6547   -2.2499   11.4743 H   0  0  0  0  0  0  0  0  0  0  0  0
  1  2  1  0
  2  3  1  0
  3  4  1  0
  4  5  1  0
  5  6  1  0
  4  7  1  0
  7  8  2  0
  7  9  1  0
  9 10  1  0
 10 11  1  0
 11 12  1  0
 12 13  1  0
 13 14  1  0
 14 15  1  0
 15 16  1  0
 16 17  2  0
 16 18  1  0
 18 19  1  0
 19 20  2  0
 20 21  1  0
 21 22  2  0
 22 23  1  0
 13  9  1  0
 23 19  1  0
  1 24  1  0
  1 25  1  0
  1 26  1  0
  3 27  1  0
  3 28  1  0
  4 29  1  0
  6 30  1  0
  6 31  1  0
  6 32  1  0
 10 33  1  0
 10 34  1  0
 11 35  1  0
 11 36  1  0
 12 37  1  0
 12 38  1  0
 13 39  1  0
 14 40  1  0
 14 41  1  0
 15 42  1  0
 18 43  1  0
 18 44  1  0
 20 45  1  0
 21 46  1  0
 23 47  1  0
M  END
>  <Energy>  (94) 
1155.2054406085554

>  <compound_id>  (94) 
14142

>  <target_id>  (94) 
1

>  <reference_id>  (94) 
96

>  <inspiration_ids>  (94) 
[95, 96]

>  <energy_score>  (94) 
1035.1317254743997

>  <distance_score>  (94) 
17.200984117360814

>  <path>  (94) 
/opt/xchem-fragalysis-2/maxwin/BulkDock/SCRATCH/511017/C14142-P96/C14142-P96.minimised.mol

>  <scratch_subdir>  (94) 
/opt/xchem-fragalysis-2/maxwin/BulkDock/SCRATCH/511017/C14142-P96

>  <fragmenstein_runtime>  (94) 
19.824392080307007

>  <fragmenstein_outcome>  (94) 
too moved

>  <fragmenstein_mode>  (94) 
expansion

>  <fragmenstein_error>  (94) 


$$$$
C14144-P95
     RDKit          3D

 50 51  0  0  0  0  0  0  0  0999 V2000
   -7.0802   -0.7744    3.0105 C   0  0  0  0  0  0  0  0  0  0  0  0
   -7.5992   -2.0871    3.1751 O   0  0  0  0  0  0  0  0  0  0  0  0
   -7.4730   -2.5822    4.5218 C   0  0  0  0  0  0  0  0  0  0  0  0
   -6.0067   -2.7979    5.0351 C   0  0  0  0  0  0  0  0  0  0  0  0
   -5.1533   -3.2599    3.9888 O   0  0  0  0  0  0  0  0  0  0  0  0
   -5.6616   -4.3378    3.2188 C   0  0  0  0  0  0  0  0  0  0  0  0
   -5.7580   -3.5522    6.4611 C   0  0  0  0  0  0  0  0  0  0  0  0
   -4.6630   -3.5690    6.9675 O   0  0  0  0  0  0  0  0  0  0  0  0
   -7.0177   -4.0326    6.9477 N   0  0  0  0  0  0  0  0  0  0  0  0
   -7.7157   -2.9506    7.6762 C   0  0  0  0  0  0  0  0  0  0  0  0
   -9.0965   -3.1554    8.0208 C   0  0  0  0  0  0  0  0  0  0  0  0
   -8.8984   -4.5228    8.5128 C   0  0  0  0  0  0  0  0  0  0  0  0
   -7.4472   -4.9833    8.4631 C   0  0  0  0  0  0  0  0  0  0  0  0
   -6.8672   -6.5925    9.5680 C   0  0  0  0  0  0  0  0  0  0  0  0
   -7.5565   -8.2434   10.4752 C   0  0  0  0  0  0  0  0  0  0  0  0
   -8.5863   -9.1779   11.9079 N   0  0  0  0  0  0  0  0  0  0  0  0
   -8.0520   -9.9307   13.4639 C   0  0  0  0  0  0  0  0  0  0  0  0
   -6.9422   -9.8246   13.8136 O   0  0  0  0  0  0  0  0  0  0  0  0
   -8.9768  -11.0947   14.6451 C   0  0  0  0  0  0  0  0  0  0  0  0
   -8.3597  -12.0652   16.3280 C   0  0  0  0  0  0  0  0  0  0  0  0
   -9.0568  -12.4702   17.7694 C   0  0  0  0  0  0  0  0  0  0  0  0
   -8.1445  -12.9062   18.6776 C   0  0  0  0  0  0  0  0  0  0  0  0
   -6.9767  -12.3960   18.3768 N   0  0  0  0  0  0  0  0  0  0  0  0
   -7.2844  -11.5283   17.3987 N   0  0  0  0  0  0  0  0  0  0  0  0
   -7.5429   -0.0827    3.7209 H   0  0  0  0  0  0  0  0  0  0  0  0
   -5.9933   -0.7662    3.1277 H   0  0  0  0  0  0  0  0  0  0  0  0
   -7.3157   -0.4398    1.9965 H   0  0  0  0  0  0  0  0  0  0  0  0
   -8.0354   -1.8865    5.1438 H   0  0  0  0  0  0  0  0  0  0  0  0
   -8.0174   -3.5297    4.5440 H   0  0  0  0  0  0  0  0  0  0  0  0
   -5.6324   -1.7877    5.2535 H   0  0  0  0  0  0  0  0  0  0  0  0
   -4.8262   -4.9399    2.8563 H   0  0  0  0  0  0  0  0  0  0  0  0
   -6.1972   -3.9606    2.3444 H   0  0  0  0  0  0  0  0  0  0  0  0
   -6.3118   -4.9802    3.8064 H   0  0  0  0  0  0  0  0  0  0  0  0
   -7.1259   -2.3711    8.3890 H   0  0  0  0  0  0  0  0  0  0  0  0
   -7.7605   -2.1214    6.9680 H   0  0  0  0  0  0  0  0  0  0  0  0
   -9.3960   -2.4021    8.7504 H   0  0  0  0  0  0  0  0  0  0  0  0
   -9.7812   -3.1066    7.1665 H   0  0  0  0  0  0  0  0  0  0  0  0
   -9.3909   -4.6657    9.4558 H   0  0  0  0  0  0  0  0  0  0  0  0
   -9.2883   -5.0985    7.6730 H   0  0  0  0  0  0  0  0  0  0  0  0
   -7.6988   -5.7177    7.6890 H   0  0  0  0  0  0  0  0  0  0  0  0
   -6.7300   -7.4536    8.8845 H   0  0  0  0  0  0  0  0  0  0  0  0
   -5.9808   -6.3518   10.1659 H   0  0  0  0  0  0  0  0  0  0  0  0
   -8.0324   -8.5937    9.5709 H   0  0  0  0  0  0  0  0  0  0  0  0
   -6.4567   -8.4421   10.5546 H   0  0  0  0  0  0  0  0  0  0  0  0
   -9.5840   -9.3022   11.8146 H   0  0  0  0  0  0  0  0  0  0  0  0
   -9.8590  -10.4816   14.7883 H   0  0  0  0  0  0  0  0  0  0  0  0
   -9.1942  -11.9746   14.0240 H   0  0  0  0  0  0  0  0  0  0  0  0
  -10.1447  -12.4124   17.9065 H   0  0  0  0  0  0  0  0  0  0  0  0
   -8.3349  -13.4960   19.5561 H   0  0  0  0  0  0  0  0  0  0  0  0
   -6.6002  -10.8433   17.0733 H   0  0  0  0  0  0  0  0  0  0  0  0
  1  2  1  0
  2  3  1  0
  3  4  1  0
  4  5  1  0
  5  6  1  0
  4  7  1  0
  7  8  2  0
  7  9  1  0
  9 10  1  0
 10 11  1  0
 11 12  1  0
 12 13  1  0
 13 14  1  0
 14 15  1  0
 15 16  1  0
 16 17  1  0
 17 18  2  0
 17 19  1  0
 19 20  1  0
 20 21  2  0
 21 22  1  0
 22 23  2  0
 23 24  1  0
 13  9  1  0
 24 20  1  0
  1 25  1  0
  1 26  1  0
  1 27  1  0
  3 28  1  0
  3 29  1  0
  4 30  1  0
  6 31  1  0
  6 32  1  0
  6 33  1  0
 10 34  1  0
 10 35  1  0
 11 36  1  0
 11 37  1  0
 12 38  1  0
 12 39  1  0
 13 40  1  0
 14 41  1  0
 14 42  1  0
 15 43  1  0
 15 44  1  0
 16 45  1  0
 19 46  1  0
 19 47  1  0
 21 48  1  0
 22 49  1  0
 24 50  1  0
M  END
>  <Energy>  (95) 
784.08792507542762

>  <compound_id>  (95) 
14144

>  <target_id>  (95) 
1

>  <reference_id>  (95) 
95

>  <inspiration_ids>  (95) 
[95, 96]

>  <energy_score>  (95) 
670.1681782011228

>  <distance_score>  (95) 
10.423905595541019

>  <path>  (95) 
/opt/xchem-fragalysis-2/maxwin/BulkDock/SCRATCH/511017/C14144-P95/C14144-P95.minimised.mol

>  <scratch_subdir>  (95) 
/opt/xchem-fragalysis-2/maxwin/BulkDock/SCRATCH/511017/C14144-P95

>  <fragmenstein_runtime>  (95) 
30.82757544517517

>  <fragmenstein_outcome>  (95) 
too moved

>  <fragmenstein_mode>  (95) 
expansion

>  <fragmenstein_error>  (95) 


$$$$
C14144-P96
     RDKit          3D

 50 51  0  0  0  0  0  0  0  0999 V2000
  -11.4768   -2.2647    3.5604 C   0  0  0  0  0  0  0  0  0  0  0  0
  -10.6869   -2.7737    4.6265 O   0  0  0  0  0  0  0  0  0  0  0  0
  -11.2034   -3.9826    5.2118 C   0  0  0  0  0  0  0  0  0  0  0  0
  -11.0128   -5.3211    4.4515 C   0  0  0  0  0  0  0  0  0  0  0  0
  -11.5005   -5.1236    3.1154 O   0  0  0  0  0  0  0  0  0  0  0  0
  -12.1614   -6.2627    2.5829 C   0  0  0  0  0  0  0  0  0  0  0  0
   -9.5850   -6.0150    4.4261 C   0  0  0  0  0  0  0  0  0  0  0  0
   -9.4726   -7.0705    3.8522 O   0  0  0  0  0  0  0  0  0  0  0  0
   -8.5959   -5.1802    5.0462 N   0  0  0  0  0  0  0  0  0  0  0  0
   -8.1015   -4.2480    4.1188 C   0  0  0  0  0  0  0  0  0  0  0  0
   -7.3446   -3.1349    4.7515 C   0  0  0  0  0  0  0  0  0  0  0  0
   -6.2362   -3.9473    5.2863 C   0  0  0  0  0  0  0  0  0  0  0  0
   -6.8462   -5.4365    5.3243 C   0  0  0  0  0  0  0  0  0  0  0  0
   -6.3660   -6.4694    6.9714 C   0  0  0  0  0  0  0  0  0  0  0  0
   -6.9622   -7.7719    8.3838 C   0  0  0  0  0  0  0  0  0  0  0  0
   -7.7813   -8.7008    9.4644 N   0  0  0  0  0  0  0  0  0  0  0  0
   -7.2705   -9.4970   10.7751 C   0  0  0  0  0  0  0  0  0  0  0  0
   -6.1678   -9.6517   11.1723 O   0  0  0  0  0  0  0  0  0  0  0  0
   -8.8882  -10.0767   11.7869 C   0  0  0  0  0  0  0  0  0  0  0  0
   -9.0720  -10.7459   13.1811 C   0  0  0  0  0  0  0  0  0  0  0  0
   -9.8160  -12.0132   13.5790 C   0  0  0  0  0  0  0  0  0  0  0  0
   -9.2666  -12.3614   15.2972 C   0  0  0  0  0  0  0  0  0  0  0  0
   -8.3268  -11.3747   15.7679 N   0  0  0  0  0  0  0  0  0  0  0  0
   -8.0369  -10.5042   14.6088 N   0  0  0  0  0  0  0  0  0  0  0  0
  -11.2612   -2.7949    2.6305 H   0  0  0  0  0  0  0  0  0  0  0  0
  -12.5452   -2.3053    3.7914 H   0  0  0  0  0  0  0  0  0  0  0  0
  -11.1986   -1.2174    3.4095 H   0  0  0  0  0  0  0  0  0  0  0  0
  -10.7368   -4.0667    6.1873 H   0  0  0  0  0  0  0  0  0  0  0  0
  -12.2739   -3.8302    5.3961 H   0  0  0  0  0  0  0  0  0  0  0  0
  -11.6509   -6.0468    4.9764 H   0  0  0  0  0  0  0  0  0  0  0  0
  -11.4800   -7.1085    2.4720 H   0  0  0  0  0  0  0  0  0  0  0  0
  -13.0125   -6.5422    3.2114 H   0  0  0  0  0  0  0  0  0  0  0  0
  -12.5406   -6.0009    1.5911 H   0  0  0  0  0  0  0  0  0  0  0  0
   -7.5983   -4.8829    3.3974 H   0  0  0  0  0  0  0  0  0  0  0  0
   -8.9470   -3.8210    3.5731 H   0  0  0  0  0  0  0  0  0  0  0  0
   -7.9279   -2.6517    5.5432 H   0  0  0  0  0  0  0  0  0  0  0  0
   -6.9988   -2.3528    4.0796 H   0  0  0  0  0  0  0  0  0  0  0  0
   -5.9567   -3.4559    6.1905 H   0  0  0  0  0  0  0  0  0  0  0  0
   -5.2997   -3.8739    4.7985 H   0  0  0  0  0  0  0  0  0  0  0  0
   -6.4248   -6.0251    4.5134 H   0  0  0  0  0  0  0  0  0  0  0  0
   -5.7035   -7.0347    6.3459 H   0  0  0  0  0  0  0  0  0  0  0  0
   -5.7612   -5.8319    7.5087 H   0  0  0  0  0  0  0  0  0  0  0  0
   -7.9772   -7.5469    8.0268 H   0  0  0  0  0  0  0  0  0  0  0  0
   -7.0448   -6.9602    9.1228 H   0  0  0  0  0  0  0  0  0  0  0  0
   -8.7303   -8.8260    9.3656 H   0  0  0  0  0  0  0  0  0  0  0  0
   -9.8383  -10.3709   11.2887 H   0  0  0  0  0  0  0  0  0  0  0  0
   -9.2664   -9.0903   12.0604 H   0  0  0  0  0  0  0  0  0  0  0  0
  -10.4551  -12.6851   13.0210 H   0  0  0  0  0  0  0  0  0  0  0  0
   -9.4033  -13.0975   16.0587 H   0  0  0  0  0  0  0  0  0  0  0  0
   -7.0527  -10.3717   14.5173 H   0  0  0  0  0  0  0  0  0  0  0  0
  1  2  1  0
  2  3  1  0
  3  4  1  0
  4  5  1  0
  5  6  1  0
  4  7  1  0
  7  8  2  0
  7  9  1  0
  9 10  1  0
 10 11  1  0
 11 12  1  0
 12 13  1  0
 13 14  1  0
 14 15  1  0
 15 16  1  0
 16 17  1  0
 17 18  2  0
 17 19  1  0
 19 20  1  0
 20 21  2  0
 21 22  1  0
 22 23  2  0
 23 24  1  0
 13  9  1  0
 24 20  1  0
  1 25  1  0
  1 26  1  0
  1 27  1  0
  3 28  1  0
  3 29  1  0
  4 30  1  0
  6 31  1  0
  6 32  1  0
  6 33  1  0
 10 34  1  0
 10 35  1  0
 11 36  1  0
 11 37  1  0
 12 38  1  0
 12 39  1  0
 13 40  1  0
 14 41  1  0
 14 42  1  0
 15 43  1  0
 15 44  1  0
 16 45  1  0
 19 46  1  0
 19 47  1  0
 21 48  1  0
 22 49  1  0
 24 50  1  0
M  END
>  <Energy>  (96) 
604.95113093261602

>  <compound_id>  (96) 
14144

>  <target_id>  (96) 
1

>  <reference_id>  (96) 
96

>  <inspiration_ids>  (96) 
[95, 96]

>  <energy_score>  (96) 
491.0313840583108

>  <distance_score>  (96) 
12.265480851229862

>  <path>  (96) 
/opt/xchem-fragalysis-2/maxwin/BulkDock/SCRATCH/511017/C14144-P96/C14144-P96.minimised.mol

>  <scratch_subdir>  (96) 
/opt/xchem-fragalysis-2/maxwin/BulkDock/SCRATCH/511017/C14144-P96

>  <fragmenstein_runtime>  (96) 
30.412992477416992

>  <fragmenstein_outcome>  (96) 
too moved

>  <fragmenstein_mode>  (96) 
expansion

>  <fragmenstein_error>  (96) 


$$$$
C10597-P35
     RDKit          3D

 48 49  0  0  0  0  0  0  0  0999 V2000
   -8.4519  -18.2621   35.0595 C   0  0  0  0  0  0  0  0  0  0  0  0
   -9.8335  -18.9113   34.9475 C   0  0  0  0  0  0  0  0  0  0  0  0
  -10.3644  -19.1919   36.3466 C   0  0  0  0  0  0  0  0  0  0  0  0
   -9.7990  -20.1521   34.0192 C   0  0  0  0  0  0  0  0  0  0  0  0
  -11.1445  -20.8524   33.8006 C   0  0  0  0  0  0  0  0  0  0  0  0
  -11.2947  -22.0386   34.7538 C   0  0  0  0  0  0  0  0  0  0  0  0
  -10.5526  -23.2691   34.5156 N   0  0  0  0  0  0  0  0  0  0  0  0
  -10.3710  -24.1046   33.2129 C   0  0  0  0  0  0  0  0  0  0  0  0
  -10.7247  -23.8897   32.1208 O   0  0  0  0  0  0  0  0  0  0  0  0
   -9.7044  -25.4202   33.5514 C   0  0  0  0  0  0  0  0  0  0  0  0
   -8.9289  -25.9448   32.3747 C   0  0  0  0  0  0  0  0  0  0  0  0
   -9.7537  -26.7891   31.4869 C   0  0  0  0  0  0  0  0  0  0  0  0
  -10.0164  -28.0641   31.6582 N   0  0  0  0  0  0  0  0  0  0  0  0
  -10.7858  -28.4179   30.5908 C   0  0  0  0  0  0  0  0  0  0  0  0
  -10.9912  -27.3491   29.7550 C   0  0  0  0  0  0  0  0  0  0  0  0
  -10.3594  -26.3039   30.3617 N   0  0  0  0  0  0  0  0  0  0  0  0
  -11.3747  -21.2882   32.4391 N   0  0  0  0  0  0  0  0  0  0  0  0
  -12.5666  -22.0517   31.8174 C   0  0  0  0  0  0  0  0  0  0  0  0
  -13.5821  -22.3802   32.2882 O   0  0  0  0  0  0  0  0  0  0  0  0
  -12.2239  -22.4116   30.4169 C   0  0  0  0  0  0  0  0  0  0  0  0
  -12.4972  -23.6350   29.7407 C   0  0  0  0  0  0  0  0  0  0  0  0
  -11.9095  -23.5131   28.5071 C   0  0  0  0  0  0  0  0  0  0  0  0
  -11.4173  -22.2466   28.4633 N   0  0  0  0  0  0  0  0  0  0  0  0
  -11.5098  -21.5884   29.6266 N   0  0  0  0  0  0  0  0  0  0  0  0
   -7.9985  -18.1027   34.0779 H   0  0  0  0  0  0  0  0  0  0  0  0
   -7.7731  -18.8760   35.6563 H   0  0  0  0  0  0  0  0  0  0  0  0
   -8.5256  -17.2852   35.5505 H   0  0  0  0  0  0  0  0  0  0  0  0
  -10.4996  -18.1700   34.4976 H   0  0  0  0  0  0  0  0  0  0  0  0
  -10.2797  -18.3053   36.9847 H   0  0  0  0  0  0  0  0  0  0  0  0
   -9.8149  -20.0066   36.8289 H   0  0  0  0  0  0  0  0  0  0  0  0
  -11.4247  -19.4489   36.3015 H   0  0  0  0  0  0  0  0  0  0  0  0
   -9.0462  -20.8625   34.3704 H   0  0  0  0  0  0  0  0  0  0  0  0
   -9.4518  -19.8043   33.0553 H   0  0  0  0  0  0  0  0  0  0  0  0
  -11.9557  -20.1464   34.0128 H   0  0  0  0  0  0  0  0  0  0  0  0
  -11.0572  -21.7499   35.7800 H   0  0  0  0  0  0  0  0  0  0  0  0
  -12.3502  -22.3196   34.7622 H   0  0  0  0  0  0  0  0  0  0  0  0
  -10.0490  -23.7100   35.2734 H   0  0  0  0  0  0  0  0  0  0  0  0
  -10.4775  -26.1493   33.7936 H   0  0  0  0  0  0  0  0  0  0  0  0
   -9.0754  -25.3251   34.4290 H   0  0  0  0  0  0  0  0  0  0  0  0
   -8.1321  -26.5789   32.7723 H   0  0  0  0  0  0  0  0  0  0  0  0
   -8.4627  -25.1369   31.8103 H   0  0  0  0  0  0  0  0  0  0  0  0
  -11.1718  -29.4218   30.4902 H   0  0  0  0  0  0  0  0  0  0  0  0
  -11.5507  -27.2347   28.8398 H   0  0  0  0  0  0  0  0  0  0  0  0
  -10.3694  -25.3301   30.0871 H   0  0  0  0  0  0  0  0  0  0  0  0
  -10.6844  -21.0965   31.7218 H   0  0  0  0  0  0  0  0  0  0  0  0
  -13.0323  -24.4822   30.1503 H   0  0  0  0  0  0  0  0  0  0  0  0
  -11.8608  -24.1720   27.6527 H   0  0  0  0  0  0  0  0  0  0  0  0
  -11.0171  -21.7478   27.6746 H   0  0  0  0  0  0  0  0  0  0  0  0
  1  2  1  0
  2  3  1  0
  2  4  1  0
  4  5  1  0
  5  6  1  0
  6  7  1  0
  7  8  1  0
  8  9  2  0
  8 10  1  0
 10 11  1  0
 11 12  1  0
 12 13  2  0
 13 14  1  0
 14 15  2  0
 15 16  1  0
  5 17  1  0
 17 18  1  0
 18 19  2  0
 18 20  1  0
 20 21  1  0
 21 22  2  0
 22 23  1  0
 23 24  1  0
 16 12  1  0
 24 20  2  0
  1 25  1  0
  1 26  1  0
  1 27  1  0
  2 28  1  0
  3 29  1  0
  3 30  1  0
  3 31  1  0
  4 32  1  0
  4 33  1  0
  5 34  1  0
  6 35  1  0
  6 36  1  0
  7 37  1  0
 10 38  1  0
 10 39  1  0
 11 40  1  0
 11 41  1  0
 14 42  1  0
 15 43  1  0
 16 44  1  0
 17 45  1  0
 21 46  1  0
 22 47  1  0
 23 48  1  0
M  END
>  <Energy>  (97) 
56.895029395848425

>  <compound_id>  (97) 
10597

>  <target_id>  (97) 
1

>  <reference_id>  (97) 
35

>  <inspiration_ids>  (97) 
[35, 96]

>  <energy_score>  (97) 
15.159622702163574

>  <distance_score>  (97) 
2.318302843815448

>  <path>  (97) 
/opt/xchem-fragalysis-2/maxwin/BulkDock/SCRATCH/511017/C10597-P35/C10597-P35.minimised.mol

>  <scratch_subdir>  (97) 
/opt/xchem-fragalysis-2/maxwin/BulkDock/SCRATCH/511017/C10597-P35

>  <fragmenstein_runtime>  (97) 
7.750597715377808

>  <fragmenstein_outcome>  (97) 
too moved

>  <fragmenstein_mode>  (97) 
expansion

>  <fragmenstein_error>  (97) 


$$$$
C10597-P96
     RDKit          3D

 48 49  0  0  0  0  0  0  0  0999 V2000
  -11.2509  -20.2462   29.3143 C   0  0  0  0  0  0  0  0  0  0  0  0
  -11.4244  -20.7791   30.6989 C   0  0  0  0  0  0  0  0  0  0  0  0
  -10.6102  -20.0200   31.7242 C   0  0  0  0  0  0  0  0  0  0  0  0
  -11.0918  -22.2391   30.5471 C   0  0  0  0  0  0  0  0  0  0  0  0
  -12.4168  -22.9492   30.1849 C   0  0  0  0  0  0  0  0  0  0  0  0
  -13.3748  -23.1273   31.3798 C   0  0  0  0  0  0  0  0  0  0  0  0
  -12.5499  -23.1103   32.5258 N   0  0  0  0  0  0  0  0  0  0  0  0
  -12.2930  -22.0040   33.5479 C   0  0  0  0  0  0  0  0  0  0  0  0
  -12.7761  -20.9533   33.6584 O   0  0  0  0  0  0  0  0  0  0  0  0
  -11.1591  -22.4885   34.3927 C   0  0  0  0  0  0  0  0  0  0  0  0
   -9.7951  -22.9050   33.8910 C   0  0  0  0  0  0  0  0  0  0  0  0
   -9.5659  -24.1524   33.1649 C   0  0  0  0  0  0  0  0  0  0  0  0
  -10.3245  -24.7503   32.2793 N   0  0  0  0  0  0  0  0  0  0  0  0
   -9.5106  -25.6621   31.6986 C   0  0  0  0  0  0  0  0  0  0  0  0
   -8.3154  -25.7240   32.3487 C   0  0  0  0  0  0  0  0  0  0  0  0
   -8.3448  -24.7429   33.2656 N   0  0  0  0  0  0  0  0  0  0  0  0
  -12.1734  -24.2115   29.6018 N   0  0  0  0  0  0  0  0  0  0  0  0
  -12.5386  -24.7544   28.2226 C   0  0  0  0  0  0  0  0  0  0  0  0
  -13.0313  -24.2283   27.3120 O   0  0  0  0  0  0  0  0  0  0  0  0
  -12.2343  -26.1629   28.2742 C   0  0  0  0  0  0  0  0  0  0  0  0
  -12.9630  -27.1873   27.6637 C   0  0  0  0  0  0  0  0  0  0  0  0
  -12.6155  -28.3104   28.3686 C   0  0  0  0  0  0  0  0  0  0  0  0
  -11.6748  -27.9271   29.2645 N   0  0  0  0  0  0  0  0  0  0  0  0
  -11.3894  -26.6344   29.2030 N   0  0  0  0  0  0  0  0  0  0  0  0
  -11.8696  -19.3673   29.2084 H   0  0  0  0  0  0  0  0  0  0  0  0
  -11.5521  -20.9441   28.5293 H   0  0  0  0  0  0  0  0  0  0  0  0
  -10.1998  -20.0371   29.1378 H   0  0  0  0  0  0  0  0  0  0  0  0
  -12.4713  -20.6664   30.9885 H   0  0  0  0  0  0  0  0  0  0  0  0
   -9.9604  -20.6622   32.2972 H   0  0  0  0  0  0  0  0  0  0  0  0
   -9.9880  -19.2574   31.2769 H   0  0  0  0  0  0  0  0  0  0  0  0
  -11.2533  -19.5046   32.4407 H   0  0  0  0  0  0  0  0  0  0  0  0
  -10.5896  -22.6285   31.4143 H   0  0  0  0  0  0  0  0  0  0  0  0
  -10.3689  -22.4195   29.7383 H   0  0  0  0  0  0  0  0  0  0  0  0
  -12.9375  -22.3974   29.4077 H   0  0  0  0  0  0  0  0  0  0  0  0
  -14.0347  -22.2663   31.4793 H   0  0  0  0  0  0  0  0  0  0  0  0
  -13.9578  -24.0518   31.3527 H   0  0  0  0  0  0  0  0  0  0  0  0
  -12.0062  -23.9353   32.7743 H   0  0  0  0  0  0  0  0  0  0  0  0
  -11.5870  -23.2906   34.9583 H   0  0  0  0  0  0  0  0  0  0  0  0
  -10.9802  -21.6328   35.0479 H   0  0  0  0  0  0  0  0  0  0  0  0
   -9.3335  -22.1260   33.2901 H   0  0  0  0  0  0  0  0  0  0  0  0
   -9.1806  -22.9948   34.8001 H   0  0  0  0  0  0  0  0  0  0  0  0
   -9.8209  -26.1942   30.8237 H   0  0  0  0  0  0  0  0  0  0  0  0
   -7.4045  -26.2695   32.2181 H   0  0  0  0  0  0  0  0  0  0  0  0
   -7.5505  -24.4186   33.8063 H   0  0  0  0  0  0  0  0  0  0  0  0
  -11.8290  -24.9737   30.1872 H   0  0  0  0  0  0  0  0  0  0  0  0
  -13.7302  -27.0968   26.9076 H   0  0  0  0  0  0  0  0  0  0  0  0
  -12.9583  -29.3340   28.3089 H   0  0  0  0  0  0  0  0  0  0  0  0
  -11.2005  -28.5094   29.9453 H   0  0  0  0  0  0  0  0  0  0  0  0
  1  2  1  0
  2  3  1  0
  2  4  1  0
  4  5  1  0
  5  6  1  0
  6  7  1  0
  7  8  1  0
  8  9  2  0
  8 10  1  0
 10 11  1  0
 11 12  1  0
 12 13  2  0
 13 14  1  0
 14 15  2  0
 15 16  1  0
  5 17  1  0
 17 18  1  0
 18 19  2  0
 18 20  1  0
 20 21  1  0
 21 22  2  0
 22 23  1  0
 23 24  1  0
 16 12  1  0
 24 20  2  0
  1 25  1  0
  1 26  1  0
  1 27  1  0
  2 28  1  0
  3 29  1  0
  3 30  1  0
  3 31  1  0
  4 32  1  0
  4 33  1  0
  5 34  1  0
  6 35  1  0
  6 36  1  0
  7 37  1  0
 10 38  1  0
 10 39  1  0
 11 40  1  0
 11 41  1  0
 14 42  1  0
 15 43  1  0
 16 44  1  0
 17 45  1  0
 21 46  1  0
 22 47  1  0
 23 48  1  0
M  END
>  <Energy>  (98) 
87.593967983436741

>  <compound_id>  (98) 
10597

>  <target_id>  (98) 
1

>  <reference_id>  (98) 
96

>  <inspiration_ids>  (98) 
[35, 96]

>  <energy_score>  (98) 
45.858561289752004

>  <distance_score>  (98) 
3.8851844782021465

>  <path>  (98) 
/opt/xchem-fragalysis-2/maxwin/BulkDock/SCRATCH/511017/C10597-P96/C10597-P96.minimised.mol

>  <scratch_subdir>  (98) 
/opt/xchem-fragalysis-2/maxwin/BulkDock/SCRATCH/511017/C10597-P96

>  <fragmenstein_runtime>  (98) 
8.041706562042236

>  <fragmenstein_outcome>  (98) 
too moved

>  <fragmenstein_mode>  (98) 
expansion

>  <fragmenstein_error>  (98) 


$$$$
C10598-P35
     RDKit          3D

 51 52  0  0  0  0  0  0  0  0999 V2000
  -12.0030  -19.8532   34.8750 C   0  0  0  0  0  0  0  0  0  0  0  0
  -10.7251  -20.6213   34.5825 C   0  0  0  0  0  0  0  0  0  0  0  0
   -9.5456  -19.6771   34.8356 C   0  0  0  0  0  0  0  0  0  0  0  0
  -10.7068  -21.1232   33.1448 C   0  0  0  0  0  0  0  0  0  0  0  0
  -11.4281  -22.4337   32.8320 C   0  0  0  0  0  0  0  0  0  0  0  0
  -13.0045  -22.4772   32.8890 C   0  0  0  0  0  0  0  0  0  0  0  0
  -13.3490  -23.5627   31.9682 N   0  0  0  0  0  0  0  0  0  0  0  0
  -14.5927  -24.4497   31.8969 C   0  0  0  0  0  0  0  0  0  0  0  0
  -15.5800  -24.4138   32.5083 O   0  0  0  0  0  0  0  0  0  0  0  0
  -14.2689  -25.3794   30.7099 C   0  0  0  0  0  0  0  0  0  0  0  0
  -13.3394  -26.5716   30.9485 C   0  0  0  0  0  0  0  0  0  0  0  0
  -11.8316  -26.4803   30.9933 C   0  0  0  0  0  0  0  0  0  0  0  0
  -11.0515  -25.8160   31.8306 N   0  0  0  0  0  0  0  0  0  0  0  0
   -9.8408  -26.4721   31.8334 C   0  0  0  0  0  0  0  0  0  0  0  0
   -9.8353  -27.4490   30.8739 C   0  0  0  0  0  0  0  0  0  0  0  0
  -11.0409  -27.3307   30.2528 N   0  0  0  0  0  0  0  0  0  0  0  0
  -11.4121  -28.0068   29.0440 C   0  0  0  0  0  0  0  0  0  0  0  0
  -11.1641  -22.8737   31.4494 N   0  0  0  0  0  0  0  0  0  0  0  0
  -11.5290  -22.2147   30.0999 C   0  0  0  0  0  0  0  0  0  0  0  0
  -12.0249  -21.1864   29.8726 O   0  0  0  0  0  0  0  0  0  0  0  0
  -11.2743  -23.1178   28.9522 C   0  0  0  0  0  0  0  0  0  0  0  0
  -10.5580  -24.3337   28.8542 C   0  0  0  0  0  0  0  0  0  0  0  0
  -10.9149  -24.8677   27.6447 C   0  0  0  0  0  0  0  0  0  0  0  0
  -11.6678  -23.9240   27.0306 N   0  0  0  0  0  0  0  0  0  0  0  0
  -11.9333  -22.8899   27.8077 N   0  0  0  0  0  0  0  0  0  0  0  0
  -12.1075  -18.9779   34.2318 H   0  0  0  0  0  0  0  0  0  0  0  0
  -12.8813  -20.4797   34.7198 H   0  0  0  0  0  0  0  0  0  0  0  0
  -11.9947  -19.4824   35.9032 H   0  0  0  0  0  0  0  0  0  0  0  0
  -10.6403  -21.4723   35.2689 H   0  0  0  0  0  0  0  0  0  0  0  0
   -8.6042  -20.1376   34.5343 H   0  0  0  0  0  0  0  0  0  0  0  0
   -9.4740  -19.4224   35.8984 H   0  0  0  0  0  0  0  0  0  0  0  0
   -9.6494  -18.7440   34.2730 H   0  0  0  0  0  0  0  0  0  0  0  0
   -9.6593  -21.2768   32.8727 H   0  0  0  0  0  0  0  0  0  0  0  0
  -11.0658  -20.3512   32.4746 H   0  0  0  0  0  0  0  0  0  0  0  0
  -11.0297  -23.2320   33.4697 H   0  0  0  0  0  0  0  0  0  0  0  0
  -13.4343  -21.5687   32.4619 H   0  0  0  0  0  0  0  0  0  0  0  0
  -13.4220  -22.6155   33.8777 H   0  0  0  0  0  0  0  0  0  0  0  0
  -12.6436  -23.9244   31.3502 H   0  0  0  0  0  0  0  0  0  0  0  0
  -15.2439  -25.7719   30.3878 H   0  0  0  0  0  0  0  0  0  0  0  0
  -13.9112  -24.7790   29.8639 H   0  0  0  0  0  0  0  0  0  0  0  0
  -13.6895  -27.1420   31.8118 H   0  0  0  0  0  0  0  0  0  0  0  0
  -13.5884  -27.2547   30.1248 H   0  0  0  0  0  0  0  0  0  0  0  0
   -9.0487  -26.2071   32.5240 H   0  0  0  0  0  0  0  0  0  0  0  0
   -9.0922  -28.1765   30.5847 H   0  0  0  0  0  0  0  0  0  0  0  0
  -10.5204  -28.1509   28.4301 H   0  0  0  0  0  0  0  0  0  0  0  0
  -12.1271  -27.4039   28.4801 H   0  0  0  0  0  0  0  0  0  0  0  0
  -11.8581  -28.9680   29.3086 H   0  0  0  0  0  0  0  0  0  0  0  0
  -10.8161  -23.8188   31.2844 H   0  0  0  0  0  0  0  0  0  0  0  0
   -9.9164  -24.7942   29.5883 H   0  0  0  0  0  0  0  0  0  0  0  0
  -10.6718  -25.8008   27.1646 H   0  0  0  0  0  0  0  0  0  0  0  0
  -12.0627  -23.9196   26.0950 H   0  0  0  0  0  0  0  0  0  0  0  0
  1  2  1  0
  2  3  1  0
  2  4  1  0
  4  5  1  0
  5  6  1  0
  6  7  1  0
  7  8  1  0
  8  9  2  0
  8 10  1  0
 10 11  1  0
 11 12  1  0
 12 13  2  0
 13 14  1  0
 14 15  2  0
 15 16  1  0
 16 17  1  0
  5 18  1  0
 18 19  1  0
 19 20  2  0
 19 21  1  0
 21 22  1  0
 22 23  2  0
 23 24  1  0
 24 25  1  0
 16 12  1  0
 25 21  2  0
  1 26  1  0
  1 27  1  0
  1 28  1  0
  2 29  1  0
  3 30  1  0
  3 31  1  0
  3 32  1  0
  4 33  1  0
  4 34  1  0
  5 35  1  0
  6 36  1  0
  6 37  1  0
  7 38  1  0
 10 39  1  0
 10 40  1  0
 11 41  1  0
 11 42  1  0
 14 43  1  0
 15 44  1  0
 17 45  1  0
 17 46  1  0
 17 47  1  0
 18 48  1  0
 22 49  1  0
 23 50  1  0
 24 51  1  0
M  END
>  <Energy>  (99) 
86.296793885400305

>  <compound_id>  (99) 
10598

>  <target_id>  (99) 
1

>  <reference_id>  (99) 
35

>  <inspiration_ids>  (99) 
[35, 96]

>  <energy_score>  (99) 
2.752719411742987

>  <distance_score>  (99) 
2.9878547284850563

>  <path>  (99) 
/opt/xchem-fragalysis-2/maxwin/BulkDock/SCRATCH/511017/C10598-P35/C10598-P35.minimised.mol

>  <scratch_subdir>  (99) 
/opt/xchem-fragalysis-2/maxwin/BulkDock/SCRATCH/511017/C10598-P35

>  <fragmenstein_runtime>  (99) 
5.725350379943848

>  <fragmenstein_outcome>  (99) 
too moved

>  <fragmenstein_mode>  (99) 
expansion

>  <fragmenstein_error>  (99) 


$$$$
C10598-P96
     RDKit          3D

 51 52  0  0  0  0  0  0  0  0999 V2000
  -10.8323  -22.5769   34.5147 C   0  0  0  0  0  0  0  0  0  0  0  0
  -10.9618  -22.1947   33.0894 C   0  0  0  0  0  0  0  0  0  0  0  0
   -9.6088  -21.8802   32.5314 C   0  0  0  0  0  0  0  0  0  0  0  0
  -12.0075  -21.0660   32.9617 C   0  0  0  0  0  0  0  0  0  0  0  0
  -13.1866  -21.4868   32.0583 C   0  0  0  0  0  0  0  0  0  0  0  0
  -14.0359  -22.6375   32.6689 C   0  0  0  0  0  0  0  0  0  0  0  0
  -13.6962  -23.9323   32.0708 N   0  0  0  0  0  0  0  0  0  0  0  0
  -14.5963  -25.0032   31.4224 C   0  0  0  0  0  0  0  0  0  0  0  0
  -15.7589  -25.0602   31.3304 O   0  0  0  0  0  0  0  0  0  0  0  0
  -13.7240  -26.0580   30.7414 C   0  0  0  0  0  0  0  0  0  0  0  0
  -12.5278  -26.6705   31.4552 C   0  0  0  0  0  0  0  0  0  0  0  0
  -11.2083  -26.0428   31.1665 C   0  0  0  0  0  0  0  0  0  0  0  0
  -10.3598  -25.5947   32.0665 N   0  0  0  0  0  0  0  0  0  0  0  0
   -9.2547  -25.1778   31.3939 C   0  0  0  0  0  0  0  0  0  0  0  0
   -9.4387  -25.3409   30.0471 C   0  0  0  0  0  0  0  0  0  0  0  0
  -10.6429  -25.9701   29.9220 N   0  0  0  0  0  0  0  0  0  0  0  0
  -11.1183  -26.6119   28.7299 C   0  0  0  0  0  0  0  0  0  0  0  0
  -12.6877  -21.9395   30.7840 N   0  0  0  0  0  0  0  0  0  0  0  0
  -11.5616  -21.3956   29.9091 C   0  0  0  0  0  0  0  0  0  0  0  0
  -10.9008  -20.4475   30.0338 O   0  0  0  0  0  0  0  0  0  0  0  0
  -11.3673  -22.3951   28.8518 C   0  0  0  0  0  0  0  0  0  0  0  0
  -10.2038  -22.7001   28.1220 C   0  0  0  0  0  0  0  0  0  0  0  0
  -10.6176  -23.5722   27.1498 C   0  0  0  0  0  0  0  0  0  0  0  0
  -11.9373  -23.7791   27.3789 N   0  0  0  0  0  0  0  0  0  0  0  0
  -12.3468  -23.2709   28.5412 N   0  0  0  0  0  0  0  0  0  0  0  0
  -10.7551  -21.6785   35.1190 H   0  0  0  0  0  0  0  0  0  0  0  0
   -9.9797  -23.2292   34.7201 H   0  0  0  0  0  0  0  0  0  0  0  0
  -11.7524  -23.0825   34.7820 H   0  0  0  0  0  0  0  0  0  0  0  0
  -11.2816  -23.0956   32.5710 H   0  0  0  0  0  0  0  0  0  0  0  0
   -9.5796  -22.2323   31.5035 H   0  0  0  0  0  0  0  0  0  0  0  0
   -9.4416  -20.8096   32.5761 H   0  0  0  0  0  0  0  0  0  0  0  0
   -8.7881  -22.3922   33.0440 H   0  0  0  0  0  0  0  0  0  0  0  0
  -11.5458  -20.1616   32.5492 H   0  0  0  0  0  0  0  0  0  0  0  0
  -12.4150  -20.7706   33.9371 H   0  0  0  0  0  0  0  0  0  0  0  0
  -13.8272  -20.6151   31.8933 H   0  0  0  0  0  0  0  0  0  0  0  0
  -15.0989  -22.4674   32.4776 H   0  0  0  0  0  0  0  0  0  0  0  0
  -13.9080  -22.6806   33.7480 H   0  0  0  0  0  0  0  0  0  0  0  0
  -12.7288  -24.2408   32.0435 H   0  0  0  0  0  0  0  0  0  0  0  0
  -14.4099  -26.8876   30.5163 H   0  0  0  0  0  0  0  0  0  0  0  0
  -13.4606  -25.6192   29.7782 H   0  0  0  0  0  0  0  0  0  0  0  0
  -12.7438  -26.7280   32.5207 H   0  0  0  0  0  0  0  0  0  0  0  0
  -12.4453  -27.7188   31.1346 H   0  0  0  0  0  0  0  0  0  0  0  0
   -8.3951  -24.7719   31.9118 H   0  0  0  0  0  0  0  0  0  0  0  0
   -8.7870  -25.1373   29.2096 H   0  0  0  0  0  0  0  0  0  0  0  0
  -12.0862  -26.2180   28.4338 H   0  0  0  0  0  0  0  0  0  0  0  0
  -11.2002  -27.6852   28.9210 H   0  0  0  0  0  0  0  0  0  0  0  0
  -10.4059  -26.4364   27.9209 H   0  0  0  0  0  0  0  0  0  0  0  0
  -12.9955  -22.8406   30.4200 H   0  0  0  0  0  0  0  0  0  0  0  0
   -9.2276  -22.2633   28.2499 H   0  0  0  0  0  0  0  0  0  0  0  0
  -10.1368  -23.9920   26.2838 H   0  0  0  0  0  0  0  0  0  0  0  0
  -12.6038  -24.2941   26.8123 H   0  0  0  0  0  0  0  0  0  0  0  0
  1  2  1  0
  2  3  1  0
  2  4  1  0
  4  5  1  0
  5  6  1  0
  6  7  1  0
  7  8  1  0
  8  9  2  0
  8 10  1  0
 10 11  1  0
 11 12  1  0
 12 13  2  0
 13 14  1  0
 14 15  2  0
 15 16  1  0
 16 17  1  0
  5 18  1  0
 18 19  1  0
 19 20  2  0
 19 21  1  0
 21 22  1  0
 22 23  2  0
 23 24  1  0
 24 25  1  0
 16 12  1  0
 25 21  2  0
  1 26  1  0
  1 27  1  0
  1 28  1  0
  2 29  1  0
  3 30  1  0
  3 31  1  0
  3 32  1  0
  4 33  1  0
  4 34  1  0
  5 35  1  0
  6 36  1  0
  6 37  1  0
  7 38  1  0
 10 39  1  0
 10 40  1  0
 11 41  1  0
 11 42  1  0
 14 43  1  0
 15 44  1  0
 17 45  1  0
 17 46  1  0
 17 47  1  0
 18 48  1  0
 22 49  1  0
 23 50  1  0
 24 51  1  0
M  END
>  <Energy>  (100) 
71.526553241247782

>  <compound_id>  (100) 
10598

>  <target_id>  (100) 
1

>  <reference_id>  (100) 
96

>  <inspiration_ids>  (100) 
[35, 96]

>  <energy_score>  (100) 
-12.01752123240783

>  <distance_score>  (100) 
3.1298792667904785

>  <path>  (100) 
/opt/xchem-fragalysis-2/maxwin/BulkDock/SCRATCH/511017/C10598-P96/C10598-P96.minimised.mol

>  <scratch_subdir>  (100) 
/opt/xchem-fragalysis-2/maxwin/BulkDock/SCRATCH/511017/C10598-P96

>  <fragmenstein_runtime>  (100) 
6.973616600036621

>  <fragmenstein_outcome>  (100) 
too moved

>  <fragmenstein_mode>  (100) 
expansion

>  <fragmenstein_error>  (100) 


$$$$
C10599-P35
     RDKit          3D

 46 48  0  0  0  0  0  0  0  0999 V2000
  -11.0075  -27.6526   26.6104 C   0  0  0  0  0  0  0  0  0  0  0  0
  -12.2195  -26.8589   27.0842 C   0  0  0  0  0  0  0  0  0  0  0  0
  -12.5813  -25.7607   26.0923 C   0  0  0  0  0  0  0  0  0  0  0  0
  -11.9070  -26.2993   28.4782 C   0  0  0  0  0  0  0  0  0  0  0  0
  -13.1770  -25.9078   29.2756 C   0  0  0  0  0  0  0  0  0  0  0  0
  -13.1905  -24.3842   29.5214 C   0  0  0  0  0  0  0  0  0  0  0  0
  -12.9987  -23.7558   28.5193 O   0  0  0  0  0  0  0  0  0  0  0  0
  -13.4249  -23.9511   30.8596 N   0  0  0  0  0  0  0  0  0  0  0  0
  -13.4102  -22.6216   31.4468 C   0  0  0  0  0  0  0  0  0  0  0  0
  -13.6341  -22.5070   32.9427 C   0  0  0  0  0  0  0  0  0  0  0  0
  -12.2724  -22.1077   33.5140 C   0  0  0  0  0  0  0  0  0  0  0  0
  -11.3272  -22.4481   32.4826 N   0  0  0  0  0  0  0  0  0  0  0  0
  -10.6128  -23.6525   32.5345 C   0  0  0  0  0  0  0  0  0  0  0  0
  -10.2817  -24.5135   31.4521 C   0  0  0  0  0  0  0  0  0  0  0  0
   -9.6167  -25.5782   31.9978 C   0  0  0  0  0  0  0  0  0  0  0  0
   -9.6294  -25.3535   33.3345 N   0  0  0  0  0  0  0  0  0  0  0  0
  -10.1869  -24.1793   33.6809 N   0  0  0  0  0  0  0  0  0  0  0  0
  -11.9648  -22.1709   31.2735 C   0  0  0  0  0  0  0  0  0  0  0  0
  -11.4546  -21.7808   30.2348 O   0  0  0  0  0  0  0  0  0  0  0  0
  -13.4223  -26.7967   30.4008 N   0  0  0  0  0  0  0  0  0  0  0  0
  -14.6522  -27.2747   30.7601 C   0  0  0  0  0  0  0  0  0  0  0  0
  -14.4016  -28.2124   31.7319 C   0  0  0  0  0  0  0  0  0  0  0  0
  -13.0579  -28.3068   31.9877 N   0  0  0  0  0  0  0  0  0  0  0  0
  -12.4979  -27.4535   31.1608 C   0  0  0  0  0  0  0  0  0  0  0  0
  -10.0744  -27.2638   27.0248 H   0  0  0  0  0  0  0  0  0  0  0  0
  -11.1123  -28.6748   26.9724 H   0  0  0  0  0  0  0  0  0  0  0  0
  -10.9113  -27.6800   25.5237 H   0  0  0  0  0  0  0  0  0  0  0  0
  -13.0675  -27.5528   27.1463 H   0  0  0  0  0  0  0  0  0  0  0  0
  -13.4781  -25.2185   26.4047 H   0  0  0  0  0  0  0  0  0  0  0  0
  -12.7989  -26.1994   25.1155 H   0  0  0  0  0  0  0  0  0  0  0  0
  -11.7661  -25.0398   25.9719 H   0  0  0  0  0  0  0  0  0  0  0  0
  -11.3250  -27.0601   29.0061 H   0  0  0  0  0  0  0  0  0  0  0  0
  -11.2206  -25.4489   28.3738 H   0  0  0  0  0  0  0  0  0  0  0  0
  -14.0525  -26.0647   28.6267 H   0  0  0  0  0  0  0  0  0  0  0  0
  -13.4624  -24.7660   31.4699 H   0  0  0  0  0  0  0  0  0  0  0  0
  -14.0911  -21.9847   30.8944 H   0  0  0  0  0  0  0  0  0  0  0  0
  -14.3694  -21.7276   33.1737 H   0  0  0  0  0  0  0  0  0  0  0  0
  -14.0388  -23.4394   33.3293 H   0  0  0  0  0  0  0  0  0  0  0  0
  -12.2393  -21.0153   33.6231 H   0  0  0  0  0  0  0  0  0  0  0  0
  -12.0257  -22.5188   34.4936 H   0  0  0  0  0  0  0  0  0  0  0  0
  -10.4779  -24.3651   30.4017 H   0  0  0  0  0  0  0  0  0  0  0  0
   -9.1427  -26.4516   31.5732 H   0  0  0  0  0  0  0  0  0  0  0  0
   -9.2196  -25.9284   34.0637 H   0  0  0  0  0  0  0  0  0  0  0  0
  -15.5728  -26.9378   30.3039 H   0  0  0  0  0  0  0  0  0  0  0  0
  -15.1209  -28.8186   32.2690 H   0  0  0  0  0  0  0  0  0  0  0  0
  -11.4338  -27.2929   31.0847 H   0  0  0  0  0  0  0  0  0  0  0  0
  1  2  1  0
  2  3  1  0
  2  4  1  0
  4  5  1  0
  5  6  1  0
  6  7  2  0
  6  8  1  0
  8  9  1  0
  9 10  1  0
 10 11  1  0
 11 12  1  0
 12 13  1  0
 13 14  1  0
 14 15  2  0
 15 16  1  0
 16 17  1  0
 12 18  1  0
 18 19  2  0
  5 20  1  0
 20 21  1  0
 21 22  2  0
 22 23  1  0
 23 24  2  0
 18  9  1  0
 24 20  1  0
 17 13  2  0
  1 25  1  0
  1 26  1  0
  1 27  1  0
  2 28  1  0
  3 29  1  0
  3 30  1  0
  3 31  1  0
  4 32  1  0
  4 33  1  0
  5 34  1  0
  8 35  1  0
  9 36  1  0
 10 37  1  0
 10 38  1  0
 11 39  1  0
 11 40  1  0
 14 41  1  0
 15 42  1  0
 16 43  1  0
 21 44  1  0
 22 45  1  0
 24 46  1  0
M  END
>  <Energy>  (101) 
54.571322795682171

>  <compound_id>  (101) 
10599

>  <target_id>  (101) 
1

>  <reference_id>  (101) 
35

>  <inspiration_ids>  (101) 
[35, 96]

>  <energy_score>  (101) 
-0.06055162177881357

>  <distance_score>  (101) 
4.138469341000179

>  <path>  (101) 
/opt/xchem-fragalysis-2/maxwin/BulkDock/SCRATCH/511017/C10599-P35/C10599-P35.minimised.mol

>  <scratch_subdir>  (101) 
/opt/xchem-fragalysis-2/maxwin/BulkDock/SCRATCH/511017/C10599-P35

>  <fragmenstein_runtime>  (101) 
11.567792654037476

>  <fragmenstein_outcome>  (101) 
too moved

>  <fragmenstein_mode>  (101) 
expansion

>  <fragmenstein_error>  (101) 


$$$$
C10599-P96
     RDKit          3D

 46 48  0  0  0  0  0  0  0  0999 V2000
   -8.3950  -24.5522   29.7407 C   0  0  0  0  0  0  0  0  0  0  0  0
   -9.6795  -24.3769   28.9966 C   0  0  0  0  0  0  0  0  0  0  0  0
   -9.8755  -25.5261   28.0026 C   0  0  0  0  0  0  0  0  0  0  0  0
   -9.7783  -22.9825   28.3569 C   0  0  0  0  0  0  0  0  0  0  0  0
  -11.1498  -22.2948   28.4858 C   0  0  0  0  0  0  0  0  0  0  0  0
  -11.3390  -21.1269   29.5082 C   0  0  0  0  0  0  0  0  0  0  0  0
  -11.8103  -20.1366   29.1437 O   0  0  0  0  0  0  0  0  0  0  0  0
  -10.8981  -21.5538   30.8957 N   0  0  0  0  0  0  0  0  0  0  0  0
  -10.8525  -20.8097   32.1430 C   0  0  0  0  0  0  0  0  0  0  0  0
  -12.1117  -20.8692   32.9774 C   0  0  0  0  0  0  0  0  0  0  0  0
  -12.0027  -22.2314   33.6260 C   0  0  0  0  0  0  0  0  0  0  0  0
  -10.5888  -22.4625   33.7897 N   0  0  0  0  0  0  0  0  0  0  0  0
   -9.9599  -23.6752   33.6146 C   0  0  0  0  0  0  0  0  0  0  0  0
  -10.2271  -24.5614   32.5547 C   0  0  0  0  0  0  0  0  0  0  0  0
   -9.2242  -25.4820   32.6363 C   0  0  0  0  0  0  0  0  0  0  0  0
   -8.3240  -24.9807   33.5185 N   0  0  0  0  0  0  0  0  0  0  0  0
   -8.8584  -24.0239   34.2822 N   0  0  0  0  0  0  0  0  0  0  0  0
   -9.8856  -21.5804   32.9700 C   0  0  0  0  0  0  0  0  0  0  0  0
   -8.6867  -21.6575   32.7488 O   0  0  0  0  0  0  0  0  0  0  0  0
  -12.2021  -23.2983   28.5690 N   0  0  0  0  0  0  0  0  0  0  0  0
  -12.7197  -23.8603   29.7021 C   0  0  0  0  0  0  0  0  0  0  0  0
  -13.1885  -25.0839   29.3021 C   0  0  0  0  0  0  0  0  0  0  0  0
  -13.1175  -25.1998   27.9431 N   0  0  0  0  0  0  0  0  0  0  0  0
  -12.5753  -24.0852   27.5166 C   0  0  0  0  0  0  0  0  0  0  0  0
   -8.4449  -25.4795   30.2951 H   0  0  0  0  0  0  0  0  0  0  0  0
   -7.5556  -24.6784   29.0785 H   0  0  0  0  0  0  0  0  0  0  0  0
   -8.2016  -23.7316   30.4354 H   0  0  0  0  0  0  0  0  0  0  0  0
  -10.4240  -24.4872   29.7754 H   0  0  0  0  0  0  0  0  0  0  0  0
  -10.3743  -25.2253   27.0799 H   0  0  0  0  0  0  0  0  0  0  0  0
  -10.4721  -26.3215   28.4617 H   0  0  0  0  0  0  0  0  0  0  0  0
   -8.9276  -25.9701   27.7005 H   0  0  0  0  0  0  0  0  0  0  0  0
   -8.9936  -22.3181   28.7065 H   0  0  0  0  0  0  0  0  0  0  0  0
   -9.5748  -23.1046   27.2868 H   0  0  0  0  0  0  0  0  0  0  0  0
  -11.2939  -21.8062   27.5155 H   0  0  0  0  0  0  0  0  0  0  0  0
  -10.4482  -22.4631   30.8429 H   0  0  0  0  0  0  0  0  0  0  0  0
  -10.5294  -19.7866   31.9469 H   0  0  0  0  0  0  0  0  0  0  0  0
  -12.0877  -20.0888   33.7481 H   0  0  0  0  0  0  0  0  0  0  0  0
  -13.0331  -20.7573   32.3988 H   0  0  0  0  0  0  0  0  0  0  0  0
  -12.5053  -22.2544   34.5931 H   0  0  0  0  0  0  0  0  0  0  0  0
  -12.4498  -22.9959   32.9834 H   0  0  0  0  0  0  0  0  0  0  0  0
  -11.0511  -24.5672   31.8649 H   0  0  0  0  0  0  0  0  0  0  0  0
   -9.0127  -26.3646   32.0798 H   0  0  0  0  0  0  0  0  0  0  0  0
   -7.3533  -25.2504   33.6716 H   0  0  0  0  0  0  0  0  0  0  0  0
  -12.6683  -23.4035   30.6757 H   0  0  0  0  0  0  0  0  0  0  0  0
  -13.6166  -25.8700   29.9100 H   0  0  0  0  0  0  0  0  0  0  0  0
  -12.3681  -23.8288   26.4848 H   0  0  0  0  0  0  0  0  0  0  0  0
  1  2  1  0
  2  3  1  0
  2  4  1  0
  4  5  1  0
  5  6  1  0
  6  7  2  0
  6  8  1  0
  8  9  1  0
  9 10  1  0
 10 11  1  0
 11 12  1  0
 12 13  1  0
 13 14  1  0
 14 15  2  0
 15 16  1  0
 16 17  1  0
 12 18  1  0
 18 19  2  0
  5 20  1  0
 20 21  1  0
 21 22  2  0
 22 23  1  0
 23 24  2  0
 18  9  1  0
 24 20  1  0
 17 13  2  0
  1 25  1  0
  1 26  1  0
  1 27  1  0
  2 28  1  0
  3 29  1  0
  3 30  1  0
  3 31  1  0
  4 32  1  0
  4 33  1  0
  5 34  1  0
  8 35  1  0
  9 36  1  0
 10 37  1  0
 10 38  1  0
 11 39  1  0
 11 40  1  0
 14 41  1  0
 15 42  1  0
 16 43  1  0
 21 44  1  0
 22 45  1  0
 24 46  1  0
M  END
>  <Energy>  (102) 
87.097433018576311

>  <compound_id>  (102) 
10599

>  <target_id>  (102) 
1

>  <reference_id>  (102) 
96

>  <inspiration_ids>  (102) 
[35, 96]

>  <energy_score>  (102) 
14.169595676279926

>  <distance_score>  (102) 
2.4191828531715114

>  <path>  (102) 
/opt/xchem-fragalysis-2/maxwin/BulkDock/SCRATCH/511017/C10599-P96/C10599-P96.minimised.mol

>  <scratch_subdir>  (102) 
/opt/xchem-fragalysis-2/maxwin/BulkDock/SCRATCH/511017/C10599-P96

>  <fragmenstein_runtime>  (102) 
11.952974319458008

>  <fragmenstein_outcome>  (102) 
too moved

>  <fragmenstein_mode>  (102) 
expansion

>  <fragmenstein_error>  (102) 


$$$$
C10600-P35
     RDKit          3D

 39 40  0  0  0  0  0  0  0  0999 V2000
  -16.4384  -28.5603   28.4149 C   0  0  0  0  0  0  0  0  0  0  0  0
  -16.5474  -27.3976   29.3911 C   0  0  0  0  0  0  0  0  0  0  0  0
  -15.1907  -26.8028   29.8052 C   0  0  0  0  0  0  0  0  0  0  0  0
  -15.4009  -25.7833   30.9431 C   0  0  0  0  0  0  0  0  0  0  0  0
  -14.1734  -25.2011   31.4121 N   0  0  0  0  0  0  0  0  0  0  0  0
  -13.3368  -24.0388   30.8458 C   0  0  0  0  0  0  0  0  0  0  0  0
  -13.5497  -23.3197   29.9541 O   0  0  0  0  0  0  0  0  0  0  0  0
  -12.0664  -23.9784   31.6072 C   0  0  0  0  0  0  0  0  0  0  0  0
  -11.1963  -25.0761   31.8322 C   0  0  0  0  0  0  0  0  0  0  0  0
  -10.1857  -24.6014   32.6170 C   0  0  0  0  0  0  0  0  0  0  0  0
  -10.4719  -23.2918   32.8279 N   0  0  0  0  0  0  0  0  0  0  0  0
  -11.5967  -22.8787   32.2235 N   0  0  0  0  0  0  0  0  0  0  0  0
  -14.5014  -26.2099   28.6729 N   0  0  0  0  0  0  0  0  0  0  0  0
  -13.5773  -26.8547   27.6056 C   0  0  0  0  0  0  0  0  0  0  0  0
  -13.2909  -27.9739   27.4286 O   0  0  0  0  0  0  0  0  0  0  0  0
  -12.9996  -25.7178   26.7548 C   0  0  0  0  0  0  0  0  0  0  0  0
  -11.8826  -25.0660   27.4846 C   0  0  0  0  0  0  0  0  0  0  0  0
  -11.4538  -23.7608   27.5514 C   0  0  0  0  0  0  0  0  0  0  0  0
  -10.4057  -23.6383   28.4162 N   0  0  0  0  0  0  0  0  0  0  0  0
  -10.2013  -24.8407   28.8874 C   0  0  0  0  0  0  0  0  0  0  0  0
  -11.0370  -25.7464   28.3201 N   0  0  0  0  0  0  0  0  0  0  0  0
  -15.7632  -29.3335   28.7945 H   0  0  0  0  0  0  0  0  0  0  0  0
  -16.0784  -28.2290   27.4369 H   0  0  0  0  0  0  0  0  0  0  0  0
  -17.4228  -29.0153   28.2639 H   0  0  0  0  0  0  0  0  0  0  0  0
  -17.0691  -27.7575   30.2866 H   0  0  0  0  0  0  0  0  0  0  0  0
  -17.1795  -26.6209   28.9445 H   0  0  0  0  0  0  0  0  0  0  0  0
  -14.5434  -27.6119   30.1659 H   0  0  0  0  0  0  0  0  0  0  0  0
  -15.8765  -26.2645   31.8042 H   0  0  0  0  0  0  0  0  0  0  0  0
  -16.0463  -24.9708   30.6087 H   0  0  0  0  0  0  0  0  0  0  0  0
  -13.7228  -25.5670   32.2556 H   0  0  0  0  0  0  0  0  0  0  0  0
  -11.3204  -26.0900   31.4832 H   0  0  0  0  0  0  0  0  0  0  0  0
   -9.3246  -25.0882   33.0445 H   0  0  0  0  0  0  0  0  0  0  0  0
   -9.9425  -22.6112   33.3639 H   0  0  0  0  0  0  0  0  0  0  0  0
  -14.4615  -25.1945   28.5894 H   0  0  0  0  0  0  0  0  0  0  0  0
  -13.7904  -25.0060   26.5001 H   0  0  0  0  0  0  0  0  0  0  0  0
  -12.6351  -26.1429   25.8126 H   0  0  0  0  0  0  0  0  0  0  0  0
  -11.8551  -22.8973   27.0350 H   0  0  0  0  0  0  0  0  0  0  0  0
   -9.4446  -25.1226   29.6071 H   0  0  0  0  0  0  0  0  0  0  0  0
  -11.0448  -26.7405   28.5119 H   0  0  0  0  0  0  0  0  0  0  0  0
  1  2  1  0
  2  3  1  0
  3  4  1  0
  4  5  1  0
  5  6  1  0
  6  7  2  0
  6  8  1  0
  8  9  1  0
  9 10  2  0
 10 11  1  0
 11 12  1  0
  3 13  1  0
 13 14  1  0
 14 15  2  0
 14 16  1  0
 16 17  1  0
 17 18  2  0
 18 19  1  0
 19 20  2  0
 20 21  1  0
 12  8  2  0
 21 17  1  0
  1 22  1  0
  1 23  1  0
  1 24  1  0
  2 25  1  0
  2 26  1  0
  3 27  1  0
  4 28  1  0
  4 29  1  0
  5 30  1  0
  9 31  1  0
 10 32  1  0
 11 33  1  0
 13 34  1  0
 16 35  1  0
 16 36  1  0
 18 37  1  0
 20 38  1  0
 21 39  1  0
M  END
>  <Energy>  (103) 
80.394368126881986

>  <compound_id>  (103) 
10600

>  <target_id>  (103) 
1

>  <reference_id>  (103) 
35

>  <inspiration_ids>  (103) 
[35, 96]

>  <energy_score>  (103) 
11.176667004533385

>  <distance_score>  (103) 
4.908443671910433

>  <path>  (103) 
/opt/xchem-fragalysis-2/maxwin/BulkDock/SCRATCH/511017/C10600-P35/C10600-P35.minimised.mol

>  <scratch_subdir>  (103) 
/opt/xchem-fragalysis-2/maxwin/BulkDock/SCRATCH/511017/C10600-P35

>  <fragmenstein_runtime>  (103) 
5.905302047729492

>  <fragmenstein_outcome>  (103) 
too moved

>  <fragmenstein_mode>  (103) 
expansion

>  <fragmenstein_error>  (103) 


$$$$
C10600-P96
     RDKit          3D

 39 40  0  0  0  0  0  0  0  0999 V2000
  -10.6896  -22.3680   33.9279 C   0  0  0  0  0  0  0  0  0  0  0  0
  -10.0980  -21.9473   32.5868 C   0  0  0  0  0  0  0  0  0  0  0  0
  -11.0929  -21.3716   31.5593 C   0  0  0  0  0  0  0  0  0  0  0  0
  -12.5784  -21.6020   31.9039 C   0  0  0  0  0  0  0  0  0  0  0  0
  -12.9899  -22.9715   31.7423 N   0  0  0  0  0  0  0  0  0  0  0  0
  -12.1501  -24.2611   31.5997 C   0  0  0  0  0  0  0  0  0  0  0  0
  -10.9972  -24.4066   31.5302 O   0  0  0  0  0  0  0  0  0  0  0  0
  -12.9716  -25.4661   31.6161 C   0  0  0  0  0  0  0  0  0  0  0  0
  -14.3618  -25.6006   31.7393 C   0  0  0  0  0  0  0  0  0  0  0  0
  -14.5675  -26.9558   31.7760 C   0  0  0  0  0  0  0  0  0  0  0  0
  -13.3446  -27.5391   31.6878 N   0  0  0  0  0  0  0  0  0  0  0  0
  -12.3551  -26.6646   31.6366 N   0  0  0  0  0  0  0  0  0  0  0  0
  -10.8800  -21.7546   30.1601 N   0  0  0  0  0  0  0  0  0  0  0  0
   -9.8642  -22.7765   29.5223 C   0  0  0  0  0  0  0  0  0  0  0  0
   -9.0575  -23.4506   30.0253 O   0  0  0  0  0  0  0  0  0  0  0  0
  -10.1503  -22.7975   28.0388 C   0  0  0  0  0  0  0  0  0  0  0  0
  -11.0838  -23.9010   27.7987 C   0  0  0  0  0  0  0  0  0  0  0  0
  -11.1512  -25.1677   28.3299 C   0  0  0  0  0  0  0  0  0  0  0  0
  -12.3174  -25.7643   27.9558 N   0  0  0  0  0  0  0  0  0  0  0  0
  -12.9221  -24.8941   27.1871 C   0  0  0  0  0  0  0  0  0  0  0  0
  -12.1819  -23.7658   27.0061 N   0  0  0  0  0  0  0  0  0  0  0  0
  -11.4626  -23.1281   33.8398 H   0  0  0  0  0  0  0  0  0  0  0  0
  -11.1287  -21.5118   34.4484 H   0  0  0  0  0  0  0  0  0  0  0  0
   -9.9124  -22.8092   34.5582 H   0  0  0  0  0  0  0  0  0  0  0  0
   -9.3424  -21.1848   32.7795 H   0  0  0  0  0  0  0  0  0  0  0  0
   -9.5207  -22.7848   32.2005 H   0  0  0  0  0  0  0  0  0  0  0  0
  -10.9432  -20.2799   31.5565 H   0  0  0  0  0  0  0  0  0  0  0  0
  -13.2129  -21.0218   31.2260 H   0  0  0  0  0  0  0  0  0  0  0  0
  -12.8298  -21.2746   32.9111 H   0  0  0  0  0  0  0  0  0  0  0  0
  -13.9678  -23.1997   31.6891 H   0  0  0  0  0  0  0  0  0  0  0  0
  -15.1330  -24.8486   31.8081 H   0  0  0  0  0  0  0  0  0  0  0  0
  -15.4675  -27.5507   31.8572 H   0  0  0  0  0  0  0  0  0  0  0  0
  -13.1142  -28.5313   31.6765 H   0  0  0  0  0  0  0  0  0  0  0  0
  -11.3861  -21.2747   29.4246 H   0  0  0  0  0  0  0  0  0  0  0  0
   -9.2156  -22.9586   27.5077 H   0  0  0  0  0  0  0  0  0  0  0  0
  -10.5686  -21.8412   27.7086 H   0  0  0  0  0  0  0  0  0  0  0  0
  -10.4651  -25.6444   29.0238 H   0  0  0  0  0  0  0  0  0  0  0  0
  -13.8908  -25.0269   26.7227 H   0  0  0  0  0  0  0  0  0  0  0  0
  -12.4452  -22.9456   26.4679 H   0  0  0  0  0  0  0  0  0  0  0  0
  1  2  1  0
  2  3  1  0
  3  4  1  0
  4  5  1  0
  5  6  1  0
  6  7  2  0
  6  8  1  0
  8  9  1  0
  9 10  2  0
 10 11  1  0
 11 12  1  0
  3 13  1  0
 13 14  1  0
 14 15  2  0
 14 16  1  0
 16 17  1  0
 17 18  2  0
 18 19  1  0
 19 20  2  0
 20 21  1  0
 12  8  2  0
 21 17  1  0
  1 22  1  0
  1 23  1  0
  1 24  1  0
  2 25  1  0
  2 26  1  0
  3 27  1  0
  4 28  1  0
  4 29  1  0
  5 30  1  0
  9 31  1  0
 10 32  1  0
 11 33  1  0
 13 34  1  0
 16 35  1  0
 16 36  1  0
 18 37  1  0
 20 38  1  0
 21 39  1  0
M  END
>  <Energy>  (104) 
114.4261583499232

>  <compound_id>  (104) 
10600

>  <target_id>  (104) 
1

>  <reference_id>  (104) 
96

>  <inspiration_ids>  (104) 
[35, 96]

>  <energy_score>  (104) 
45.208457227574996

>  <distance_score>  (104) 
3.5509902698399904

>  <path>  (104) 
/opt/xchem-fragalysis-2/maxwin/BulkDock/SCRATCH/511017/C10600-P96/C10600-P96.minimised.mol

>  <scratch_subdir>  (104) 
/opt/xchem-fragalysis-2/maxwin/BulkDock/SCRATCH/511017/C10600-P96

>  <fragmenstein_runtime>  (104) 
4.300276517868042

>  <fragmenstein_outcome>  (104) 
too moved

>  <fragmenstein_mode>  (104) 
expansion

>  <fragmenstein_error>  (104) 


$$$$
C10602-P35
     RDKit          3D

 24 26  0  0  0  0  0  0  0  0999 V2000
   -9.0377  -26.3167   34.1167 N   0  0  0  0  0  0  0  0  0  0  0  0
   -9.6205  -25.4787   33.5816 C   0  0  0  0  0  0  0  0  0  0  0  0
  -10.3390  -24.5883   32.7792 C   0  0  0  0  0  0  0  0  0  0  0  0
  -10.6514  -23.2686   32.9429 C   0  0  0  0  0  0  0  0  0  0  0  0
  -11.1777  -22.7759   31.7791 N   0  0  0  0  0  0  0  0  0  0  0  0
  -11.2148  -23.7975   30.9310 C   0  0  0  0  0  0  0  0  0  0  0  0
  -11.6176  -23.6510   29.4146 C   0  0  0  0  0  0  0  0  0  0  0  0
  -11.9164  -24.6726   28.4835 C   0  0  0  0  0  0  0  0  0  0  0  0
  -11.9684  -24.0518   27.2633 C   0  0  0  0  0  0  0  0  0  0  0  0
  -11.8021  -22.7277   27.5247 N   0  0  0  0  0  0  0  0  0  0  0  0
  -11.6535  -22.4497   28.8268 N   0  0  0  0  0  0  0  0  0  0  0  0
  -10.7578  -24.9521   31.5277 N   0  0  0  0  0  0  0  0  0  0  0  0
  -10.4932  -26.2156   30.9467 C   0  0  0  0  0  0  0  0  0  0  0  0
   -9.8673  -26.4604   29.7235 C   0  0  0  0  0  0  0  0  0  0  0  0
   -9.8455  -27.8204   29.6308 C   0  0  0  0  0  0  0  0  0  0  0  0
  -10.3396  -28.3037   30.7973 N   0  0  0  0  0  0  0  0  0  0  0  0
  -10.7612  -27.3359   31.6294 N   0  0  0  0  0  0  0  0  0  0  0  0
  -10.4768  -22.6289   33.7988 H   0  0  0  0  0  0  0  0  0  0  0  0
  -12.0708  -25.7269   28.6547 H   0  0  0  0  0  0  0  0  0  0  0  0
  -12.1553  -24.4078   26.2610 H   0  0  0  0  0  0  0  0  0  0  0  0
  -11.8539  -21.9563   26.8629 H   0  0  0  0  0  0  0  0  0  0  0  0
   -9.4732  -25.7591   29.0063 H   0  0  0  0  0  0  0  0  0  0  0  0
   -9.4726  -28.4642   28.8588 H   0  0  0  0  0  0  0  0  0  0  0  0
  -10.4413  -29.2784   31.0662 H   0  0  0  0  0  0  0  0  0  0  0  0
  1  2  3  0
  2  3  1  0
  3  4  2  0
  4  5  1  0
  5  6  2  0
  6  7  1  0
  7  8  1  0
  8  9  2  0
  9 10  1  0
 10 11  1  0
  6 12  1  0
 12 13  1  0
 13 14  1  0
 14 15  2  0
 15 16  1  0
 16 17  1  0
 12  3  1  0
 17 13  2  0
 11  7  2  0
  4 18  1  0
  8 19  1  0
  9 20  1  0
 10 21  1  0
 14 22  1  0
 15 23  1  0
 16 24  1  0
M  END
>  <Energy>  (105) 
59.962766150207472

>  <compound_id>  (105) 
10602

>  <target_id>  (105) 
1

>  <reference_id>  (105) 
35

>  <inspiration_ids>  (105) 
[35, 96]

>  <energy_score>  (105) 
-22.060955946897707

>  <distance_score>  (105) 
1.4636495002651957

>  <path>  (105) 
/opt/xchem-fragalysis-2/maxwin/BulkDock/SCRATCH/511017/C10602-P35/C10602-P35.minimised.mol

>  <scratch_subdir>  (105) 
/opt/xchem-fragalysis-2/maxwin/BulkDock/SCRATCH/511017/C10602-P35

>  <fragmenstein_runtime>  (105) 
2.4042468070983887

>  <fragmenstein_outcome>  (105) 
too moved

>  <fragmenstein_mode>  (105) 
expansion

>  <fragmenstein_error>  (105) 


$$$$
C10602-P96
     RDKit          3D

 24 26  0  0  0  0  0  0  0  0999 V2000
   -8.4831  -25.5950   34.4198 N   0  0  0  0  0  0  0  0  0  0  0  0
   -8.8667  -24.9546   33.5372 C   0  0  0  0  0  0  0  0  0  0  0  0
   -9.5073  -24.1888   32.5486 C   0  0  0  0  0  0  0  0  0  0  0  0
   -9.8004  -22.8512   32.6011 C   0  0  0  0  0  0  0  0  0  0  0  0
  -10.4420  -22.4567   31.4699 N   0  0  0  0  0  0  0  0  0  0  0  0
  -10.4414  -23.5257   30.6919 C   0  0  0  0  0  0  0  0  0  0  0  0
  -10.7272  -23.4609   29.1676 C   0  0  0  0  0  0  0  0  0  0  0  0
  -10.3789  -24.4129   28.1857 C   0  0  0  0  0  0  0  0  0  0  0  0
  -10.8612  -23.8937   27.0100 C   0  0  0  0  0  0  0  0  0  0  0  0
  -11.4122  -22.6875   27.3286 N   0  0  0  0  0  0  0  0  0  0  0  0
  -11.3430  -22.4047   28.6356 N   0  0  0  0  0  0  0  0  0  0  0  0
  -10.1785  -24.6562   31.4326 N   0  0  0  0  0  0  0  0  0  0  0  0
  -10.7623  -25.9504   31.2524 C   0  0  0  0  0  0  0  0  0  0  0  0
  -11.6547  -26.4448   30.2805 C   0  0  0  0  0  0  0  0  0  0  0  0
  -12.0304  -27.6893   30.7372 C   0  0  0  0  0  0  0  0  0  0  0  0
  -11.4323  -27.8404   31.9482 N   0  0  0  0  0  0  0  0  0  0  0  0
  -10.5864  -26.8425   32.2261 N   0  0  0  0  0  0  0  0  0  0  0  0
   -9.5834  -22.1510   33.3885 H   0  0  0  0  0  0  0  0  0  0  0  0
   -9.8340  -25.3383   28.3025 H   0  0  0  0  0  0  0  0  0  0  0  0
  -10.8367  -24.2465   25.9907 H   0  0  0  0  0  0  0  0  0  0  0  0
  -11.8606  -22.0029   26.7162 H   0  0  0  0  0  0  0  0  0  0  0  0
  -12.0556  -25.9707   29.3973 H   0  0  0  0  0  0  0  0  0  0  0  0
  -12.7055  -28.4342   30.3399 H   0  0  0  0  0  0  0  0  0  0  0  0
  -11.4799  -28.6251   32.5928 H   0  0  0  0  0  0  0  0  0  0  0  0
  1  2  3  0
  2  3  1  0
  3  4  2  0
  4  5  1  0
  5  6  2  0
  6  7  1  0
  7  8  1  0
  8  9  2  0
  9 10  1  0
 10 11  1  0
  6 12  1  0
 12 13  1  0
 13 14  1  0
 14 15  2  0
 15 16  1  0
 16 17  1  0
 12  3  1  0
 17 13  2  0
 11  7  2  0
  4 18  1  0
  8 19  1  0
  9 20  1  0
 10 21  1  0
 14 22  1  0
 15 23  1  0
 16 24  1  0
M  END
>  <Energy>  (106) 
54.542465163403811

>  <compound_id>  (106) 
10602

>  <target_id>  (106) 
1

>  <reference_id>  (106) 
96

>  <inspiration_ids>  (106) 
[35, 96]

>  <energy_score>  (106) 
-27.48125693370139

>  <distance_score>  (106) 
1.5089979323195368

>  <path>  (106) 
/opt/xchem-fragalysis-2/maxwin/BulkDock/SCRATCH/511017/C10602-P96/C10602-P96.minimised.mol

>  <scratch_subdir>  (106) 
/opt/xchem-fragalysis-2/maxwin/BulkDock/SCRATCH/511017/C10602-P96

>  <fragmenstein_runtime>  (106) 
2.6571297645568848

>  <fragmenstein_outcome>  (106) 
too moved

>  <fragmenstein_mode>  (106) 
expansion

>  <fragmenstein_error>  (106) 


$$$$
C10604-P35
     RDKit          3D

 30 32  0  0  0  0  0  0  0  0999 V2000
  -11.9583  -21.4707   30.0765 O   0  0  0  0  0  0  0  0  0  0  0  0
  -12.3492  -22.6242   30.0663 C   0  0  0  0  0  0  0  0  0  0  0  0
  -13.1170  -23.2609   30.9804 O   0  0  0  0  0  0  0  0  0  0  0  0
  -13.3550  -22.5787   32.2207 C   0  0  0  0  0  0  0  0  0  0  0  0
  -12.0920  -22.3185   32.9659 C   0  0  0  0  0  0  0  0  0  0  0  0
  -11.0077  -23.2100   33.1265 C   0  0  0  0  0  0  0  0  0  0  0  0
  -10.0824  -22.4978   33.8371 C   0  0  0  0  0  0  0  0  0  0  0  0
  -10.6034  -21.2546   34.0152 N   0  0  0  0  0  0  0  0  0  0  0  0
  -11.8516  -21.1339   33.5420 N   0  0  0  0  0  0  0  0  0  0  0  0
  -12.0553  -23.5528   28.9690 C   0  0  0  0  0  0  0  0  0  0  0  0
  -11.5904  -23.0759   27.7598 C   0  0  0  0  0  0  0  0  0  0  0  0
  -11.3550  -23.8987   26.7084 N   0  0  0  0  0  0  0  0  0  0  0  0
  -11.5952  -25.2071   26.9258 C   0  0  0  0  0  0  0  0  0  0  0  0
  -12.0141  -25.6867   28.1554 C   0  0  0  0  0  0  0  0  0  0  0  0
  -12.2202  -27.0557   28.3639 N   0  0  0  0  0  0  0  0  0  0  0  0
  -12.7965  -27.6214   29.4765 C   0  0  0  0  0  0  0  0  0  0  0  0
  -12.9196  -28.9552   29.1829 C   0  0  0  0  0  0  0  0  0  0  0  0
  -12.3874  -29.2302   27.9517 N   0  0  0  0  0  0  0  0  0  0  0  0
  -11.9082  -28.0856   27.5242 C   0  0  0  0  0  0  0  0  0  0  0  0
  -12.2711  -24.8672   29.1914 N   0  0  0  0  0  0  0  0  0  0  0  0
  -13.9990  -23.2298   32.8208 H   0  0  0  0  0  0  0  0  0  0  0  0
  -13.9287  -21.6686   32.0306 H   0  0  0  0  0  0  0  0  0  0  0  0
  -10.9278  -24.2294   32.7743 H   0  0  0  0  0  0  0  0  0  0  0  0
   -9.1075  -22.7551   34.2007 H   0  0  0  0  0  0  0  0  0  0  0  0
  -10.1722  -20.4461   34.4524 H   0  0  0  0  0  0  0  0  0  0  0  0
  -11.4131  -22.0205   27.5863 H   0  0  0  0  0  0  0  0  0  0  0  0
  -11.4538  -25.8341   26.0562 H   0  0  0  0  0  0  0  0  0  0  0  0
  -13.1010  -27.0331   30.3327 H   0  0  0  0  0  0  0  0  0  0  0  0
  -13.3658  -29.7314   29.7915 H   0  0  0  0  0  0  0  0  0  0  0  0
  -11.3363  -27.9653   26.6153 H   0  0  0  0  0  0  0  0  0  0  0  0
  1  2  2  0
  2  3  1  0
  3  4  1  0
  4  5  1  0
  5  6  1  0
  6  7  2  0
  7  8  1  0
  8  9  1  0
  2 10  1  0
 10 11  2  0
 11 12  1  0
 12 13  2  0
 13 14  1  0
 14 15  1  0
 15 16  1  0
 16 17  2  0
 17 18  1  0
 18 19  2  0
 14 20  2  0
  9  5  2  0
 20 10  1  0
 19 15  1  0
  4 21  1  0
  4 22  1  0
  6 23  1  0
  7 24  1  0
  8 25  1  0
 11 26  1  0
 13 27  1  0
 16 28  1  0
 17 29  1  0
 19 30  1  0
M  END
>  <Energy>  (107) 
130.95158245100961

>  <compound_id>  (107) 
10604

>  <target_id>  (107) 
1

>  <reference_id>  (107) 
35

>  <inspiration_ids>  (107) 
[35, 96]

>  <energy_score>  (107) 
-32.03132581966514

>  <distance_score>  (107) 
4.508453594438043

>  <path>  (107) 
/opt/xchem-fragalysis-2/maxwin/BulkDock/SCRATCH/511017/C10604-P35/C10604-P35.minimised.mol

>  <scratch_subdir>  (107) 
/opt/xchem-fragalysis-2/maxwin/BulkDock/SCRATCH/511017/C10604-P35

>  <fragmenstein_runtime>  (107) 
5.552623748779297

>  <fragmenstein_outcome>  (107) 
too moved

>  <fragmenstein_mode>  (107) 
expansion

>  <fragmenstein_error>  (107) 


$$$$
C10604-P96
     RDKit          3D

 30 32  0  0  0  0  0  0  0  0999 V2000
  -13.3286  -23.6696   31.9872 O   0  0  0  0  0  0  0  0  0  0  0  0
  -12.5178  -23.1399   31.2471 C   0  0  0  0  0  0  0  0  0  0  0  0
  -11.6526  -22.1524   31.5744 O   0  0  0  0  0  0  0  0  0  0  0  0
  -11.1288  -22.2896   32.9066 C   0  0  0  0  0  0  0  0  0  0  0  0
   -9.9570  -23.2339   32.9088 C   0  0  0  0  0  0  0  0  0  0  0  0
   -9.8706  -24.5370   32.3583 C   0  0  0  0  0  0  0  0  0  0  0  0
   -8.6005  -24.9681   32.6348 C   0  0  0  0  0  0  0  0  0  0  0  0
   -7.9904  -23.9374   33.2742 N   0  0  0  0  0  0  0  0  0  0  0  0
   -8.7895  -22.8808   33.4536 N   0  0  0  0  0  0  0  0  0  0  0  0
  -12.2370  -23.5360   29.8630 C   0  0  0  0  0  0  0  0  0  0  0  0
  -11.0525  -22.7750   28.8985 C   0  0  0  0  0  0  0  0  0  0  0  0
  -10.4012  -23.3750   27.4374 N   0  0  0  0  0  0  0  0  0  0  0  0
  -10.9696  -24.7858   26.7750 C   0  0  0  0  0  0  0  0  0  0  0  0
  -12.1615  -25.6251   27.6679 C   0  0  0  0  0  0  0  0  0  0  0  0
  -12.8533  -26.6349   27.6564 N   0  0  0  0  0  0  0  0  0  0  0  0
  -11.5539  -26.6885   28.7512 C   0  0  0  0  0  0  0  0  0  0  0  0
  -10.9770  -25.1105   28.9517 C   0  0  0  0  0  0  0  0  0  0  0  0
  -12.3705  -23.9858   27.9725 N   0  0  0  0  0  0  0  0  0  0  0  0
  -13.4694  -25.0881   27.3864 C   0  0  0  0  0  0  0  0  0  0  0  0
  -12.8640  -25.0448   29.3583 N   0  0  0  0  0  0  0  0  0  0  0  0
  -11.8941  -22.6169   33.6195 H   0  0  0  0  0  0  0  0  0  0  0  0
  -10.8108  -21.2895   33.2191 H   0  0  0  0  0  0  0  0  0  0  0  0
  -10.6385  -25.1078   31.8576 H   0  0  0  0  0  0  0  0  0  0  0  0
   -8.0765  -25.8871   32.4303 H   0  0  0  0  0  0  0  0  0  0  0  0
   -7.0361  -23.8855   33.6201 H   0  0  0  0  0  0  0  0  0  0  0  0
  -10.5888  -21.8383   29.1871 H   0  0  0  0  0  0  0  0  0  0  0  0
  -10.5536  -25.0816   25.8311 H   0  0  0  0  0  0  0  0  0  0  0  0
  -11.2508  -27.6758   29.0733 H   0  0  0  0  0  0  0  0  0  0  0  0
  -10.0777  -24.6999   29.4143 H   0  0  0  0  0  0  0  0  0  0  0  0
  -14.4259  -24.9287   26.8973 H   0  0  0  0  0  0  0  0  0  0  0  0
  1  2  2  0
  2  3  1  0
  3  4  1  0
  4  5  1  0
  5  6  1  0
  6  7  2  0
  7  8  1  0
  8  9  1  0
  2 10  1  0
 10 11  2  0
 11 12  1  0
 12 13  2  0
 13 14  1  0
 14 15  1  0
 15 16  1  0
 16 17  2  0
 17 18  1  0
 18 19  2  0
 14 20  2  0
  9  5  2  0
 20 10  1  0
 19 15  1  0
  4 21  1  0
  4 22  1  0
  6 23  1  0
  7 24  1  0
  8 25  1  0
 11 26  1  0
 13 27  1  0
 16 28  1  0
 17 29  1  0
 19 30  1  0
M  END
>  <Energy>  (108) 
1450.314863172985

>  <compound_id>  (108) 
10604

>  <target_id>  (108) 
1

>  <reference_id>  (108) 
96

>  <inspiration_ids>  (108) 
[35, 96]

>  <energy_score>  (108) 
1287.3319549023095

>  <distance_score>  (108) 
2.757689742979209

>  <path>  (108) 
/opt/xchem-fragalysis-2/maxwin/BulkDock/SCRATCH/511017/C10604-P96/C10604-P96.minimised.mol

>  <scratch_subdir>  (108) 
/opt/xchem-fragalysis-2/maxwin/BulkDock/SCRATCH/511017/C10604-P96

>  <fragmenstein_runtime>  (108) 
4.384834051132202

>  <fragmenstein_outcome>  (108) 
too moved

>  <fragmenstein_mode>  (108) 
expansion

>  <fragmenstein_error>  (108) 


$$$$
C10605-P35
     RDKit          3D

 43 44  0  0  0  0  0  0  0  0999 V2000
  -11.8857  -27.7985   31.3409 C   0  0  0  0  0  0  0  0  0  0  0  0
  -11.9239  -27.6212   29.8797 N   0  0  0  0  0  0  0  0  0  0  0  0
  -12.8987  -26.4646   30.2710 C   0  0  0  0  0  0  0  0  0  0  0  0
  -12.3445  -25.0728   30.7519 C   0  0  0  0  0  0  0  0  0  0  0  0
  -11.7367  -24.3885   29.6484 O   0  0  0  0  0  0  0  0  0  0  0  0
  -13.5031  -24.1758   31.3250 C   0  0  0  0  0  0  0  0  0  0  0  0
  -12.7794  -23.1573   32.1740 N   0  0  0  0  0  0  0  0  0  0  0  0
  -14.1832  -22.6348   32.3580 C   0  0  0  0  0  0  0  0  0  0  0  0
  -11.9120  -22.1047   31.8117 C   0  0  0  0  0  0  0  0  0  0  0  0
  -11.5975  -21.6917   30.7278 O   0  0  0  0  0  0  0  0  0  0  0  0
  -11.2521  -21.5333   33.0147 C   0  0  0  0  0  0  0  0  0  0  0  0
  -11.5236  -21.6945   34.3987 C   0  0  0  0  0  0  0  0  0  0  0  0
  -10.5041  -21.0454   35.0541 C   0  0  0  0  0  0  0  0  0  0  0  0
   -9.7138  -20.5158   34.0809 N   0  0  0  0  0  0  0  0  0  0  0  0
  -10.1571  -20.7804   32.8552 N   0  0  0  0  0  0  0  0  0  0  0  0
  -10.9280  -27.1407   28.9708 C   0  0  0  0  0  0  0  0  0  0  0  0
   -9.8381  -26.6743   29.1793 O   0  0  0  0  0  0  0  0  0  0  0  0
  -11.3928  -27.4000   27.5384 C   0  0  0  0  0  0  0  0  0  0  0  0
  -11.9885  -26.1993   26.9121 C   0  0  0  0  0  0  0  0  0  0  0  0
  -13.1304  -26.0281   26.1663 C   0  0  0  0  0  0  0  0  0  0  0  0
  -13.2862  -24.7192   25.8108 N   0  0  0  0  0  0  0  0  0  0  0  0
  -12.2540  -24.0917   26.3264 C   0  0  0  0  0  0  0  0  0  0  0  0
  -11.4458  -24.9435   27.0138 N   0  0  0  0  0  0  0  0  0  0  0  0
  -12.8159  -28.1416   31.8140 H   0  0  0  0  0  0  0  0  0  0  0  0
  -11.2488  -28.6905   31.4354 H   0  0  0  0  0  0  0  0  0  0  0  0
  -11.3000  -27.0660   31.9017 H   0  0  0  0  0  0  0  0  0  0  0  0
  -13.3771  -26.2434   29.3049 H   0  0  0  0  0  0  0  0  0  0  0  0
  -13.7679  -26.8059   30.8590 H   0  0  0  0  0  0  0  0  0  0  0  0
  -11.5642  -25.1861   31.5082 H   0  0  0  0  0  0  0  0  0  0  0  0
  -11.4555  -23.5035   29.9591 H   0  0  0  0  0  0  0  0  0  0  0  0
  -13.9811  -23.7395   30.4343 H   0  0  0  0  0  0  0  0  0  0  0  0
  -14.1704  -24.8313   31.8978 H   0  0  0  0  0  0  0  0  0  0  0  0
  -14.0974  -21.7981   33.0668 H   0  0  0  0  0  0  0  0  0  0  0  0
  -14.5925  -22.1456   31.4641 H   0  0  0  0  0  0  0  0  0  0  0  0
  -14.8822  -23.3157   32.8650 H   0  0  0  0  0  0  0  0  0  0  0  0
  -12.3391  -22.2280   34.8587 H   0  0  0  0  0  0  0  0  0  0  0  0
  -10.2686  -20.9148   36.0990 H   0  0  0  0  0  0  0  0  0  0  0  0
   -8.8619  -19.9649   34.1651 H   0  0  0  0  0  0  0  0  0  0  0  0
  -10.5250  -27.7341   26.9578 H   0  0  0  0  0  0  0  0  0  0  0  0
  -12.1072  -28.2320   27.5274 H   0  0  0  0  0  0  0  0  0  0  0  0
  -13.8545  -26.7764   25.8702 H   0  0  0  0  0  0  0  0  0  0  0  0
  -12.0448  -23.0346   26.2529 H   0  0  0  0  0  0  0  0  0  0  0  0
  -10.6624  -24.6764   27.5983 H   0  0  0  0  0  0  0  0  0  0  0  0
  1  2  1  0
  2  3  1  0
  3  4  1  0
  4  5  1  0
  4  6  1  0
  6  7  1  0
  7  8  1  0
  7  9  1  0
  9 10  2  0
  9 11  1  0
 11 12  1  0
 12 13  2  0
 13 14  1  0
 14 15  1  0
  2 16  1  0
 16 17  2  0
 16 18  1  0
 18 19  1  0
 19 20  2  0
 20 21  1  0
 21 22  2  0
 22 23  1  0
 15 11  2  0
 23 19  1  0
  1 24  1  0
  1 25  1  0
  1 26  1  0
  3 27  1  0
  3 28  1  0
  4 29  1  0
  5 30  1  0
  6 31  1  0
  6 32  1  0
  8 33  1  0
  8 34  1  0
  8 35  1  0
 12 36  1  0
 13 37  1  0
 14 38  1  0
 18 39  1  0
 18 40  1  0
 20 41  1  0
 22 42  1  0
 23 43  1  0
M  END
>  <Energy>  (109) 
223.8849654095186

>  <compound_id>  (109) 
10605

>  <target_id>  (109) 
1

>  <reference_id>  (109) 
35

>  <inspiration_ids>  (109) 
[35, 96]

>  <energy_score>  (109) 
90.56692559498231

>  <distance_score>  (109) 
4.183741494700927

>  <path>  (109) 
/opt/xchem-fragalysis-2/maxwin/BulkDock/SCRATCH/511017/C10605-P35/C10605-P35.minimised.mol

>  <scratch_subdir>  (109) 
/opt/xchem-fragalysis-2/maxwin/BulkDock/SCRATCH/511017/C10605-P35

>  <fragmenstein_runtime>  (109) 
6.912143707275391

>  <fragmenstein_outcome>  (109) 
too moved

>  <fragmenstein_mode>  (109) 
expansion

>  <fragmenstein_error>  (109) 


$$$$
C10605-P96
     RDKit          3D

 43 44  0  0  0  0  0  0  0  0999 V2000
   -8.3148  -25.0223   32.7359 C   0  0  0  0  0  0  0  0  0  0  0  0
   -9.5098  -25.4039   31.9541 N   0  0  0  0  0  0  0  0  0  0  0  0
  -10.0020  -24.0763   32.4549 C   0  0  0  0  0  0  0  0  0  0  0  0
   -9.8566  -23.1920   33.7469 C   0  0  0  0  0  0  0  0  0  0  0  0
   -8.7447  -22.3435   33.4263 O   0  0  0  0  0  0  0  0  0  0  0  0
  -11.1392  -22.2673   34.0033 C   0  0  0  0  0  0  0  0  0  0  0  0
  -11.4555  -21.8539   32.6190 N   0  0  0  0  0  0  0  0  0  0  0  0
  -12.1031  -20.6992   33.3400 C   0  0  0  0  0  0  0  0  0  0  0  0
  -12.3514  -22.3996   31.6758 C   0  0  0  0  0  0  0  0  0  0  0  0
  -13.1574  -23.2858   31.7833 O   0  0  0  0  0  0  0  0  0  0  0  0
  -12.0944  -21.7738   30.3810 C   0  0  0  0  0  0  0  0  0  0  0  0
  -12.1567  -22.5377   29.1993 C   0  0  0  0  0  0  0  0  0  0  0  0
  -11.3099  -21.9239   28.3246 C   0  0  0  0  0  0  0  0  0  0  0  0
  -10.9478  -20.7643   28.9229 N   0  0  0  0  0  0  0  0  0  0  0  0
  -11.3891  -20.6429   30.1885 N   0  0  0  0  0  0  0  0  0  0  0  0
   -9.7098  -25.4962   30.5295 C   0  0  0  0  0  0  0  0  0  0  0  0
   -8.9831  -25.1994   29.6186 O   0  0  0  0  0  0  0  0  0  0  0  0
  -11.1137  -26.0945   30.2677 C   0  0  0  0  0  0  0  0  0  0  0  0
  -11.6327  -25.8880   28.8790 C   0  0  0  0  0  0  0  0  0  0  0  0
  -11.0797  -25.4401   27.6959 C   0  0  0  0  0  0  0  0  0  0  0  0
  -12.0325  -25.3219   26.7173 N   0  0  0  0  0  0  0  0  0  0  0  0
  -13.1471  -25.7340   27.2684 C   0  0  0  0  0  0  0  0  0  0  0  0
  -12.9523  -26.1146   28.5635 N   0  0  0  0  0  0  0  0  0  0  0  0
   -7.6171  -25.8434   32.5323 H   0  0  0  0  0  0  0  0  0  0  0  0
   -7.7608  -24.1569   32.3497 H   0  0  0  0  0  0  0  0  0  0  0  0
   -8.4333  -25.1168   33.8204 H   0  0  0  0  0  0  0  0  0  0  0  0
   -9.8320  -23.4011   31.5971 H   0  0  0  0  0  0  0  0  0  0  0  0
  -11.0659  -24.3112   32.4456 H   0  0  0  0  0  0  0  0  0  0  0  0
   -9.6058  -23.7217   34.6643 H   0  0  0  0  0  0  0  0  0  0  0  0
   -9.0553  -21.7257   32.7344 H   0  0  0  0  0  0  0  0  0  0  0  0
  -10.8260  -21.5352   34.7501 H   0  0  0  0  0  0  0  0  0  0  0  0
  -11.9429  -22.9024   34.3791 H   0  0  0  0  0  0  0  0  0  0  0  0
  -12.6593  -20.1318   32.5845 H   0  0  0  0  0  0  0  0  0  0  0  0
  -12.8980  -20.9748   34.0545 H   0  0  0  0  0  0  0  0  0  0  0  0
  -11.3783  -19.9718   33.7245 H   0  0  0  0  0  0  0  0  0  0  0  0
  -12.6483  -23.4823   29.0621 H   0  0  0  0  0  0  0  0  0  0  0  0
  -11.0089  -22.1771   27.3179 H   0  0  0  0  0  0  0  0  0  0  0  0
  -10.4263  -19.9953   28.5073 H   0  0  0  0  0  0  0  0  0  0  0  0
  -11.0901  -27.1669   30.4714 H   0  0  0  0  0  0  0  0  0  0  0  0
  -11.8327  -25.6549   30.9665 H   0  0  0  0  0  0  0  0  0  0  0  0
  -10.0553  -25.1525   27.5020 H   0  0  0  0  0  0  0  0  0  0  0  0
  -14.1152  -25.7759   26.7885 H   0  0  0  0  0  0  0  0  0  0  0  0
  -13.6697  -26.4488   29.1913 H   0  0  0  0  0  0  0  0  0  0  0  0
  1  2  1  0
  2  3  1  0
  3  4  1  0
  4  5  1  0
  4  6  1  0
  6  7  1  0
  7  8  1  0
  7  9  1  0
  9 10  2  0
  9 11  1  0
 11 12  1  0
 12 13  2  0
 13 14  1  0
 14 15  1  0
  2 16  1  0
 16 17  2  0
 16 18  1  0
 18 19  1  0
 19 20  2  0
 20 21  1  0
 21 22  2  0
 22 23  1  0
 15 11  2  0
 23 19  1  0
  1 24  1  0
  1 25  1  0
  1 26  1  0
  3 27  1  0
  3 28  1  0
  4 29  1  0
  5 30  1  0
  6 31  1  0
  6 32  1  0
  8 33  1  0
  8 34  1  0
  8 35  1  0
 12 36  1  0
 13 37  1  0
 14 38  1  0
 18 39  1  0
 18 40  1  0
 20 41  1  0
 22 42  1  0
 23 43  1  0
M  END
>  <Energy>  (110) 
254.46838279356939

>  <compound_id>  (110) 
10605

>  <target_id>  (110) 
1

>  <reference_id>  (110) 
96

>  <inspiration_ids>  (110) 
[35, 96]

>  <energy_score>  (110) 
121.15034297903554

>  <distance_score>  (110) 
3.5312016557819477

>  <path>  (110) 
/opt/xchem-fragalysis-2/maxwin/BulkDock/SCRATCH/511017/C10605-P96/C10605-P96.minimised.mol

>  <scratch_subdir>  (110) 
/opt/xchem-fragalysis-2/maxwin/BulkDock/SCRATCH/511017/C10605-P96

>  <fragmenstein_runtime>  (110) 
7.109273195266724

>  <fragmenstein_outcome>  (110) 
too moved

>  <fragmenstein_mode>  (110) 
expansion

>  <fragmenstein_error>  (110) 


$$$$
C10606-P35
     RDKit          3D

 46 47  0  0  0  0  0  0  0  0999 V2000
  -11.6274  -21.9783   30.8010 C   0  0  0  0  0  0  0  0  0  0  0  0
  -12.0094  -23.3968   30.6735 N   0  0  0  0  0  0  0  0  0  0  0  0
  -11.9571  -23.3166   32.2160 C   0  0  0  0  0  0  0  0  0  0  0  0
  -10.5628  -23.5619   32.8959 C   0  0  0  0  0  0  0  0  0  0  0  0
  -10.2451  -24.9669   32.8290 O   0  0  0  0  0  0  0  0  0  0  0  0
  -10.4791  -23.1257   34.3764 C   0  0  0  0  0  0  0  0  0  0  0  0
  -10.1380  -21.6854   34.5639 N   0  0  0  0  0  0  0  0  0  0  0  0
  -10.1117  -22.1027   36.0106 C   0  0  0  0  0  0  0  0  0  0  0  0
  -10.9261  -20.5199   34.4094 C   0  0  0  0  0  0  0  0  0  0  0  0
  -12.0979  -20.3945   34.1739 O   0  0  0  0  0  0  0  0  0  0  0  0
  -10.0820  -19.3401   34.6976 C   0  0  0  0  0  0  0  0  0  0  0  0
  -10.5134  -18.0291   34.9965 C   0  0  0  0  0  0  0  0  0  0  0  0
   -9.3623  -17.3085   35.1858 C   0  0  0  0  0  0  0  0  0  0  0  0
   -8.3380  -18.1916   35.0667 N   0  0  0  0  0  0  0  0  0  0  0  0
   -8.7445  -19.4340   34.8158 N   0  0  0  0  0  0  0  0  0  0  0  0
  -11.2653  -24.5275   30.2129 C   0  0  0  0  0  0  0  0  0  0  0  0
  -10.1077  -24.6267   29.8960 O   0  0  0  0  0  0  0  0  0  0  0  0
  -12.2091  -25.7114   30.0430 C   0  0  0  0  0  0  0  0  0  0  0  0
  -12.0598  -26.2607   28.6559 C   0  0  0  0  0  0  0  0  0  0  0  0
  -11.8406  -27.5591   28.2430 C   0  0  0  0  0  0  0  0  0  0  0  0
  -11.7652  -27.6432   26.8793 N   0  0  0  0  0  0  0  0  0  0  0  0
  -11.9027  -26.4097   26.4555 C   0  0  0  0  0  0  0  0  0  0  0  0
  -12.0567  -25.5306   27.4876 N   0  0  0  0  0  0  0  0  0  0  0  0
  -12.1329  -24.1015   27.3072 C   0  0  0  0  0  0  0  0  0  0  0  0
  -11.4112  -21.6721   29.7679 H   0  0  0  0  0  0  0  0  0  0  0  0
  -10.7336  -21.6773   31.3504 H   0  0  0  0  0  0  0  0  0  0  0  0
  -12.5019  -21.3976   31.0811 H   0  0  0  0  0  0  0  0  0  0  0  0
  -12.5345  -22.4973   32.6756 H   0  0  0  0  0  0  0  0  0  0  0  0
  -12.5694  -24.1825   32.4676 H   0  0  0  0  0  0  0  0  0  0  0  0
   -9.7615  -23.0595   32.3818 H   0  0  0  0  0  0  0  0  0  0  0  0
   -9.6442  -25.0863   32.0630 H   0  0  0  0  0  0  0  0  0  0  0  0
   -9.7216  -23.8053   34.7926 H   0  0  0  0  0  0  0  0  0  0  0  0
  -11.4747  -23.2776   34.7658 H   0  0  0  0  0  0  0  0  0  0  0  0
  -11.0513  -22.4888   36.4330 H   0  0  0  0  0  0  0  0  0  0  0  0
   -9.2278  -22.6922   36.2540 H   0  0  0  0  0  0  0  0  0  0  0  0
   -9.9468  -21.1881   36.5992 H   0  0  0  0  0  0  0  0  0  0  0  0
  -11.5284  -17.6582   35.0153 H   0  0  0  0  0  0  0  0  0  0  0  0
   -9.1751  -16.2666   35.3828 H   0  0  0  0  0  0  0  0  0  0  0  0
   -7.3441  -18.0160   35.1685 H   0  0  0  0  0  0  0  0  0  0  0  0
  -13.2523  -25.4186   30.2051 H   0  0  0  0  0  0  0  0  0  0  0  0
  -11.9476  -26.4643   30.7943 H   0  0  0  0  0  0  0  0  0  0  0  0
  -11.7357  -28.4394   28.8637 H   0  0  0  0  0  0  0  0  0  0  0  0
  -11.8834  -26.0946   25.4217 H   0  0  0  0  0  0  0  0  0  0  0  0
  -11.1251  -23.6891   27.3943 H   0  0  0  0  0  0  0  0  0  0  0  0
  -12.5382  -23.8865   26.3149 H   0  0  0  0  0  0  0  0  0  0  0  0
  -12.7910  -23.6782   28.0648 H   0  0  0  0  0  0  0  0  0  0  0  0
  1  2  1  0
  2  3  1  0
  3  4  1  0
  4  5  1  0
  4  6  1  0
  6  7  1  0
  7  8  1  0
  7  9  1  0
  9 10  2  0
  9 11  1  0
 11 12  1  0
 12 13  2  0
 13 14  1  0
 14 15  1  0
  2 16  1  0
 16 17  2  0
 16 18  1  0
 18 19  1  0
 19 20  2  0
 20 21  1  0
 21 22  2  0
 22 23  1  0
 23 24  1  0
 15 11  2  0
 23 19  1  0
  1 25  1  0
  1 26  1  0
  1 27  1  0
  3 28  1  0
  3 29  1  0
  4 30  1  0
  5 31  1  0
  6 32  1  0
  6 33  1  0
  8 34  1  0
  8 35  1  0
  8 36  1  0
 12 37  1  0
 13 38  1  0
 14 39  1  0
 18 40  1  0
 18 41  1  0
 20 42  1  0
 22 43  1  0
 24 44  1  0
 24 45  1  0
 24 46  1  0
M  END
>  <Energy>  (111) 
229.49294159321016

>  <compound_id>  (111) 
10606

>  <target_id>  (111) 
1

>  <reference_id>  (111) 
35

>  <inspiration_ids>  (111) 
[35, 96]

>  <energy_score>  (111) 
107.67316795387842

>  <distance_score>  (111) 
4.8244408595776775

>  <path>  (111) 
/opt/xchem-fragalysis-2/maxwin/BulkDock/SCRATCH/511017/C10606-P35/C10606-P35.minimised.mol

>  <scratch_subdir>  (111) 
/opt/xchem-fragalysis-2/maxwin/BulkDock/SCRATCH/511017/C10606-P35

>  <fragmenstein_runtime>  (111) 
9.042661428451538

>  <fragmenstein_outcome>  (111) 
too moved

>  <fragmenstein_mode>  (111) 
expansion

>  <fragmenstein_error>  (111) 


$$$$
C10606-P96
     RDKit          3D

 46 47  0  0  0  0  0  0  0  0999 V2000
  -10.9807  -21.9326   28.9087 C   0  0  0  0  0  0  0  0  0  0  0  0
  -11.0502  -23.3552   28.5109 N   0  0  0  0  0  0  0  0  0  0  0  0
   -9.8538  -23.4502   29.4551 C   0  0  0  0  0  0  0  0  0  0  0  0
   -9.9264  -23.2447   31.0170 C   0  0  0  0  0  0  0  0  0  0  0  0
   -8.6154  -23.6333   31.4891 O   0  0  0  0  0  0  0  0  0  0  0  0
  -10.9834  -24.0758   31.7946 C   0  0  0  0  0  0  0  0  0  0  0  0
  -12.1508  -23.3263   32.4306 N   0  0  0  0  0  0  0  0  0  0  0  0
  -12.8856  -23.9318   31.2790 C   0  0  0  0  0  0  0  0  0  0  0  0
  -12.4282  -21.9260   32.5121 C   0  0  0  0  0  0  0  0  0  0  0  0
  -11.8576  -20.9855   32.0216 O   0  0  0  0  0  0  0  0  0  0  0  0
  -13.6853  -21.6419   33.2508 C   0  0  0  0  0  0  0  0  0  0  0  0
  -14.0657  -20.3667   33.7472 C   0  0  0  0  0  0  0  0  0  0  0  0
  -15.3694  -20.5047   34.1465 C   0  0  0  0  0  0  0  0  0  0  0  0
  -15.7038  -21.7959   33.8793 N   0  0  0  0  0  0  0  0  0  0  0  0
  -14.6775  -22.5378   33.4390 N   0  0  0  0  0  0  0  0  0  0  0  0
  -10.7499  -23.9869   27.2737 C   0  0  0  0  0  0  0  0  0  0  0  0
  -10.2775  -23.5397   26.2617 O   0  0  0  0  0  0  0  0  0  0  0  0
  -10.9754  -25.4850   27.2820 C   0  0  0  0  0  0  0  0  0  0  0  0
  -12.0954  -25.9665   28.1157 C   0  0  0  0  0  0  0  0  0  0  0  0
  -12.0911  -26.6711   29.2973 C   0  0  0  0  0  0  0  0  0  0  0  0
  -13.3651  -26.9419   29.7077 N   0  0  0  0  0  0  0  0  0  0  0  0
  -14.1395  -26.4753   28.7549 C   0  0  0  0  0  0  0  0  0  0  0  0
  -13.4179  -25.8628   27.7726 N   0  0  0  0  0  0  0  0  0  0  0  0
  -13.9604  -25.2973   26.5618 C   0  0  0  0  0  0  0  0  0  0  0  0
  -10.0663  -21.3844   28.6506 H   0  0  0  0  0  0  0  0  0  0  0  0
  -11.4231  -21.7068   29.8725 H   0  0  0  0  0  0  0  0  0  0  0  0
  -11.6889  -21.4694   28.2216 H   0  0  0  0  0  0  0  0  0  0  0  0
   -9.5640  -24.5116   29.3740 H   0  0  0  0  0  0  0  0  0  0  0  0
   -8.9513  -22.9918   29.0156 H   0  0  0  0  0  0  0  0  0  0  0  0
  -10.0094  -22.1940   31.2813 H   0  0  0  0  0  0  0  0  0  0  0  0
   -8.5030  -23.2907   32.3957 H   0  0  0  0  0  0  0  0  0  0  0  0
  -11.1066  -25.1024   31.4135 H   0  0  0  0  0  0  0  0  0  0  0  0
  -10.4429  -24.3123   32.7250 H   0  0  0  0  0  0  0  0  0  0  0  0
  -13.9066  -23.5331   31.2956 H   0  0  0  0  0  0  0  0  0  0  0  0
  -12.5555  -23.6484   30.2837 H   0  0  0  0  0  0  0  0  0  0  0  0
  -13.0548  -25.0056   31.4321 H   0  0  0  0  0  0  0  0  0  0  0  0
  -13.4617  -19.4713   33.7662 H   0  0  0  0  0  0  0  0  0  0  0  0
  -16.0822  -19.8090   34.5646 H   0  0  0  0  0  0  0  0  0  0  0  0
  -16.6035  -22.2481   34.0099 H   0  0  0  0  0  0  0  0  0  0  0  0
  -10.0362  -25.9636   27.5799 H   0  0  0  0  0  0  0  0  0  0  0  0
  -11.1692  -25.7602   26.2404 H   0  0  0  0  0  0  0  0  0  0  0  0
  -11.2360  -26.9924   29.8759 H   0  0  0  0  0  0  0  0  0  0  0  0
  -15.2170  -26.5666   28.7216 H   0  0  0  0  0  0  0  0  0  0  0  0
  -13.6687  -25.9365   25.7245 H   0  0  0  0  0  0  0  0  0  0  0  0
  -15.0500  -25.2570   26.6304 H   0  0  0  0  0  0  0  0  0  0  0  0
  -13.5613  -24.2899   26.4300 H   0  0  0  0  0  0  0  0  0  0  0  0
  1  2  1  0
  2  3  1  0
  3  4  1  0
  4  5  1  0
  4  6  1  0
  6  7  1  0
  7  8  1  0
  7  9  1  0
  9 10  2  0
  9 11  1  0
 11 12  1  0
 12 13  2  0
 13 14  1  0
 14 15  1  0
  2 16  1  0
 16 17  2  0
 16 18  1  0
 18 19  1  0
 19 20  2  0
 20 21  1  0
 21 22  2  0
 22 23  1  0
 23 24  1  0
 15 11  2  0
 23 19  1  0
  1 25  1  0
  1 26  1  0
  1 27  1  0
  3 28  1  0
  3 29  1  0
  4 30  1  0
  5 31  1  0
  6 32  1  0
  6 33  1  0
  8 34  1  0
  8 35  1  0
  8 36  1  0
 12 37  1  0
 13 38  1  0
 14 39  1  0
 18 40  1  0
 18 41  1  0
 20 42  1  0
 22 43  1  0
 24 44  1  0
 24 45  1  0
 24 46  1  0
M  END
>  <Energy>  (112) 
243.06343725137941

>  <compound_id>  (112) 
10606

>  <target_id>  (112) 
1

>  <reference_id>  (112) 
96

>  <inspiration_ids>  (112) 
[35, 96]

>  <energy_score>  (112) 
121.24366361204989

>  <distance_score>  (112) 
4.69206412806152

>  <path>  (112) 
/opt/xchem-fragalysis-2/maxwin/BulkDock/SCRATCH/511017/C10606-P96/C10606-P96.minimised.mol

>  <scratch_subdir>  (112) 
/opt/xchem-fragalysis-2/maxwin/BulkDock/SCRATCH/511017/C10606-P96

>  <fragmenstein_runtime>  (112) 
7.517681360244751

>  <fragmenstein_outcome>  (112) 
too moved

>  <fragmenstein_mode>  (112) 
expansion

>  <fragmenstein_error>  (112) 


$$$$
C10607-P35
     RDKit          3D

 42 44  0  0  0  0  0  0  0  0999 V2000
   -9.6656  -26.3557   33.4095 C   0  0  0  0  0  0  0  0  0  0  0  0
  -10.3134  -25.7754   32.1314 C   0  0  0  0  0  0  0  0  0  0  0  0
   -9.1145  -25.3186   31.3351 C   0  0  0  0  0  0  0  0  0  0  0  0
  -11.1428  -24.5178   32.5403 C   0  0  0  0  0  0  0  0  0  0  0  0
  -10.7814  -23.8573   33.5152 O   0  0  0  0  0  0  0  0  0  0  0  0
  -12.3188  -24.2374   31.8643 N   0  0  0  0  0  0  0  0  0  0  0  0
  -12.7294  -23.4069   30.7527 C   0  0  0  0  0  0  0  0  0  0  0  0
  -13.3149  -24.3805   29.4303 C   0  0  0  0  0  0  0  0  0  0  0  0
  -12.4782  -23.8856   28.2863 C   0  0  0  0  0  0  0  0  0  0  0  0
  -12.3116  -24.8883   27.2324 C   0  0  0  0  0  0  0  0  0  0  0  0
  -11.3551  -25.7782   27.1173 N   0  0  0  0  0  0  0  0  0  0  0  0
  -11.7785  -26.6427   26.1519 C   0  0  0  0  0  0  0  0  0  0  0  0
  -12.9803  -26.2347   25.6332 C   0  0  0  0  0  0  0  0  0  0  0  0
  -13.2531  -25.0563   26.2565 N   0  0  0  0  0  0  0  0  0  0  0  0
  -11.2550  -23.5239   29.0409 C   0  0  0  0  0  0  0  0  0  0  0  0
  -11.8955  -23.0622   30.5256 C   0  0  0  0  0  0  0  0  0  0  0  0
  -11.0380  -26.9008   31.3943 C   0  0  0  0  0  0  0  0  0  0  0  0
  -11.0008  -27.1821   30.0026 C   0  0  0  0  0  0  0  0  0  0  0  0
  -11.6917  -28.3520   29.8328 C   0  0  0  0  0  0  0  0  0  0  0  0
  -12.0154  -28.7648   31.0817 N   0  0  0  0  0  0  0  0  0  0  0  0
  -11.6559  -27.9090   32.0446 N   0  0  0  0  0  0  0  0  0  0  0  0
   -8.8385  -27.0162   33.1432 H   0  0  0  0  0  0  0  0  0  0  0  0
   -9.2539  -25.5878   34.0663 H   0  0  0  0  0  0  0  0  0  0  0  0
  -10.3723  -26.9335   34.0000 H   0  0  0  0  0  0  0  0  0  0  0  0
   -8.5244  -26.1791   31.0338 H   0  0  0  0  0  0  0  0  0  0  0  0
   -9.3628  -24.8070   30.4223 H   0  0  0  0  0  0  0  0  0  0  0  0
   -8.5041  -24.6495   31.9387 H   0  0  0  0  0  0  0  0  0  0  0  0
  -13.4859  -22.4256   30.9643 H   0  0  0  0  0  0  0  0  0  0  0  0
  -13.7573  -23.7534   31.1816 H   0  0  0  0  0  0  0  0  0  0  0  0
  -13.1556  -25.4369   29.6754 H   0  0  0  0  0  0  0  0  0  0  0  0
  -14.3830  -24.2327   29.2846 H   0  0  0  0  0  0  0  0  0  0  0  0
  -12.8648  -22.9578   27.8724 H   0  0  0  0  0  0  0  0  0  0  0  0
  -11.1908  -27.5153   25.9001 H   0  0  0  0  0  0  0  0  0  0  0  0
  -13.6561  -26.6331   24.8943 H   0  0  0  0  0  0  0  0  0  0  0  0
  -14.0577  -24.4690   26.0868 H   0  0  0  0  0  0  0  0  0  0  0  0
  -10.7468  -22.6707   28.5773 H   0  0  0  0  0  0  0  0  0  0  0  0
  -10.5660  -24.3541   29.1200 H   0  0  0  0  0  0  0  0  0  0  0  0
  -10.8306  -23.0104   30.9533 H   0  0  0  0  0  0  0  0  0  0  0  0
  -11.8035  -21.8571   30.7103 H   0  0  0  0  0  0  0  0  0  0  0  0
  -10.5066  -26.6232   29.2242 H   0  0  0  0  0  0  0  0  0  0  0  0
  -11.9179  -28.9349   28.9540 H   0  0  0  0  0  0  0  0  0  0  0  0
  -12.4582  -29.6340   31.3547 H   0  0  0  0  0  0  0  0  0  0  0  0
  1  2  1  0
  2  3  1  0
  2  4  1  0
  4  5  2  0
  4  6  1  0
  6  7  1  0
  7  8  1  0
  8  9  1  0
  9 10  1  0
 10 11  2  0
 11 12  1  0
 12 13  2  0
 13 14  1  0
  9 15  1  0
 15 16  1  0
  2 17  1  0
 17 18  1  0
 18 19  2  0
 19 20  1  0
 20 21  1  0
 16  6  1  0
 21 17  2  0
 14 10  1  0
  1 22  1  0
  1 23  1  0
  1 24  1  0
  3 25  1  0
  3 26  1  0
  3 27  1  0
  7 28  1  0
  7 29  1  0
  8 30  1  0
  8 31  1  0
  9 32  1  0
 12 33  1  0
 13 34  1  0
 14 35  1  0
 15 36  1  0
 15 37  1  0
 16 38  1  0
 16 39  1  0
 18 40  1  0
 19 41  1  0
 20 42  1  0
M  END
>  <Energy>  (113) 
599.38733108595352

>  <compound_id>  (113) 
10607

>  <target_id>  (113) 
1

>  <reference_id>  (113) 
35

>  <inspiration_ids>  (113) 
[35, 96]

>  <energy_score>  (113) 
524.1660634808569

>  <distance_score>  (113) 
3.679818156798361

>  <path>  (113) 
/opt/xchem-fragalysis-2/maxwin/BulkDock/SCRATCH/511017/C10607-P35/C10607-P35.minimised.mol

>  <scratch_subdir>  (113) 
/opt/xchem-fragalysis-2/maxwin/BulkDock/SCRATCH/511017/C10607-P35

>  <fragmenstein_runtime>  (113) 
12.879666566848755

>  <fragmenstein_outcome>  (113) 
too moved

>  <fragmenstein_mode>  (113) 
expansion

>  <fragmenstein_error>  (113) 


$$$$
C10607-P96
     RDKit          3D

 42 44  0  0  0  0  0  0  0  0999 V2000
   -8.6367  -25.7918   33.1476 C   0  0  0  0  0  0  0  0  0  0  0  0
   -9.5008  -24.8360   32.2761 C   0  0  0  0  0  0  0  0  0  0  0  0
   -8.6259  -24.3110   31.1287 C   0  0  0  0  0  0  0  0  0  0  0  0
   -9.7839  -23.6626   33.2947 C   0  0  0  0  0  0  0  0  0  0  0  0
   -8.8114  -23.1688   33.8681 O   0  0  0  0  0  0  0  0  0  0  0  0
  -11.1145  -23.2956   33.5949 N   0  0  0  0  0  0  0  0  0  0  0  0
  -12.3499  -21.9983   32.9868 C   0  0  0  0  0  0  0  0  0  0  0  0
  -13.1029  -21.9208   31.4025 C   0  0  0  0  0  0  0  0  0  0  0  0
  -11.9754  -21.4911   30.4484 C   0  0  0  0  0  0  0  0  0  0  0  0
  -11.8107  -22.3823   29.2546 C   0  0  0  0  0  0  0  0  0  0  0  0
  -12.6511  -23.2971   28.8056 N   0  0  0  0  0  0  0  0  0  0  0  0
  -12.0754  -23.8151   27.6687 C   0  0  0  0  0  0  0  0  0  0  0  0
  -10.8650  -23.2254   27.4294 C   0  0  0  0  0  0  0  0  0  0  0  0
  -10.7271  -22.2901   28.4136 N   0  0  0  0  0  0  0  0  0  0  0  0
  -10.7922  -21.4827   31.3891 C   0  0  0  0  0  0  0  0  0  0  0  0
  -11.4561  -22.2436   32.7497 C   0  0  0  0  0  0  0  0  0  0  0  0
  -10.6822  -25.5819   31.6395 C   0  0  0  0  0  0  0  0  0  0  0  0
  -11.2330  -26.8871   31.8284 C   0  0  0  0  0  0  0  0  0  0  0  0
  -12.2677  -27.0107   30.9333 C   0  0  0  0  0  0  0  0  0  0  0  0
  -12.2878  -25.8372   30.2568 N   0  0  0  0  0  0  0  0  0  0  0  0
  -11.3178  -25.0045   30.6249 N   0  0  0  0  0  0  0  0  0  0  0  0
   -8.7795  -25.6291   34.2222 H   0  0  0  0  0  0  0  0  0  0  0  0
   -8.8842  -26.8352   32.9991 H   0  0  0  0  0  0  0  0  0  0  0  0
   -7.5658  -25.6617   32.9618 H   0  0  0  0  0  0  0  0  0  0  0  0
   -8.3094  -25.1432   30.4959 H   0  0  0  0  0  0  0  0  0  0  0  0
   -7.7658  -23.7506   31.5018 H   0  0  0  0  0  0  0  0  0  0  0  0
   -9.1545  -23.6567   30.4386 H   0  0  0  0  0  0  0  0  0  0  0  0
  -12.4382  -20.9815   33.6172 H   0  0  0  0  0  0  0  0  0  0  0  0
  -13.2589  -22.4654   33.5305 H   0  0  0  0  0  0  0  0  0  0  0  0
  -13.5450  -22.9011   31.1927 H   0  0  0  0  0  0  0  0  0  0  0  0
  -13.8841  -21.1595   31.4878 H   0  0  0  0  0  0  0  0  0  0  0  0
  -12.1251  -20.4734   30.0812 H   0  0  0  0  0  0  0  0  0  0  0  0
  -12.5650  -24.5816   27.0833 H   0  0  0  0  0  0  0  0  0  0  0  0
  -10.1365  -23.3610   26.6473 H   0  0  0  0  0  0  0  0  0  0  0  0
   -9.9708  -21.6291   28.5080 H   0  0  0  0  0  0  0  0  0  0  0  0
  -10.5201  -20.4484   31.6425 H   0  0  0  0  0  0  0  0  0  0  0  0
   -9.9290  -22.0359   31.0708 H   0  0  0  0  0  0  0  0  0  0  0  0
  -11.3324  -23.1112   31.9663 H   0  0  0  0  0  0  0  0  0  0  0  0
  -10.5631  -21.6380   33.2544 H   0  0  0  0  0  0  0  0  0  0  0  0
  -10.9321  -27.6432   32.5387 H   0  0  0  0  0  0  0  0  0  0  0  0
  -12.9700  -27.8050   30.7294 H   0  0  0  0  0  0  0  0  0  0  0  0
  -12.9173  -25.5171   29.5255 H   0  0  0  0  0  0  0  0  0  0  0  0
  1  2  1  0
  2  3  1  0
  2  4  1  0
  4  5  2  0
  4  6  1  0
  6  7  1  0
  7  8  1  0
  8  9  1  0
  9 10  1  0
 10 11  2  0
 11 12  1  0
 12 13  2  0
 13 14  1  0
  9 15  1  0
 15 16  1  0
  2 17  1  0
 17 18  1  0
 18 19  2  0
 19 20  1  0
 20 21  1  0
 16  6  1  0
 21 17  2  0
 14 10  1  0
  1 22  1  0
  1 23  1  0
  1 24  1  0
  3 25  1  0
  3 26  1  0
  3 27  1  0
  7 28  1  0
  7 29  1  0
  8 30  1  0
  8 31  1  0
  9 32  1  0
 12 33  1  0
 13 34  1  0
 14 35  1  0
 15 36  1  0
 15 37  1  0
 16 38  1  0
 16 39  1  0
 18 40  1  0
 19 41  1  0
 20 42  1  0
M  END
>  <Energy>  (114) 
648.20508619060115

>  <compound_id>  (114) 
10607

>  <target_id>  (114) 
1

>  <reference_id>  (114) 
96

>  <inspiration_ids>  (114) 
[35, 96]

>  <energy_score>  (114) 
572.9838185855106

>  <distance_score>  (114) 
2.69221632884898

>  <path>  (114) 
/opt/xchem-fragalysis-2/maxwin/BulkDock/SCRATCH/511017/C10607-P96/C10607-P96.minimised.mol

>  <scratch_subdir>  (114) 
/opt/xchem-fragalysis-2/maxwin/BulkDock/SCRATCH/511017/C10607-P96

>  <fragmenstein_runtime>  (114) 
10.272704601287842

>  <fragmenstein_outcome>  (114) 
too moved

>  <fragmenstein_mode>  (114) 
expansion

>  <fragmenstein_error>  (114) 


$$$$
C10608-P35
     RDKit          3D

 42 43  0  0  0  0  0  0  0  0999 V2000
  -11.8924  -24.7892   26.1343 C   0  0  0  0  0  0  0  0  0  0  0  0
  -12.1070  -24.4043   27.5418 C   0  0  0  0  0  0  0  0  0  0  0  0
  -11.6759  -23.3166   28.1409 N   0  0  0  0  0  0  0  0  0  0  0  0
  -12.2602  -23.3144   29.3874 C   0  0  0  0  0  0  0  0  0  0  0  0
  -12.0701  -22.1470   30.2912 C   0  0  0  0  0  0  0  0  0  0  0  0
  -12.2015  -22.4535   31.7769 C   0  0  0  0  0  0  0  0  0  0  0  0
  -12.0561  -23.5878   32.1319 O   0  0  0  0  0  0  0  0  0  0  0  0
  -12.3958  -21.2603   32.5396 N   0  0  0  0  0  0  0  0  0  0  0  0
  -11.0707  -20.6121   32.8533 C   0  0  0  0  0  0  0  0  0  0  0  0
  -12.5904  -21.0633   34.0127 C   0  0  0  0  0  0  0  0  0  0  0  0
  -11.6697  -21.7374   35.1124 C   0  0  0  0  0  0  0  0  0  0  0  0
  -11.0698  -23.0445   34.6454 N   0  0  0  0  0  0  0  0  0  0  0  0
  -10.5590  -23.0542   36.0267 C   0  0  0  0  0  0  0  0  0  0  0  0
  -10.0089  -23.3117   33.7267 C   0  0  0  0  0  0  0  0  0  0  0  0
   -9.2672  -22.5637   33.1624 O   0  0  0  0  0  0  0  0  0  0  0  0
   -9.8346  -24.7431   33.2939 C   0  0  0  0  0  0  0  0  0  0  0  0
   -9.8780  -25.1726   31.9238 C   0  0  0  0  0  0  0  0  0  0  0  0
   -9.3814  -26.4442   31.8957 C   0  0  0  0  0  0  0  0  0  0  0  0
   -8.9131  -26.6370   33.1521 N   0  0  0  0  0  0  0  0  0  0  0  0
   -9.3612  -25.7457   34.0507 N   0  0  0  0  0  0  0  0  0  0  0  0
  -13.0282  -24.4478   29.5439 C   0  0  0  0  0  0  0  0  0  0  0  0
  -12.8842  -25.1506   28.3868 N   0  0  0  0  0  0  0  0  0  0  0  0
  -11.6126  -25.8435   26.0526 H   0  0  0  0  0  0  0  0  0  0  0  0
  -12.8150  -24.6325   25.5677 H   0  0  0  0  0  0  0  0  0  0  0  0
  -11.1075  -24.1821   25.6783 H   0  0  0  0  0  0  0  0  0  0  0  0
  -11.0861  -21.7129   30.1105 H   0  0  0  0  0  0  0  0  0  0  0  0
  -12.7787  -21.3899   30.0082 H   0  0  0  0  0  0  0  0  0  0  0  0
  -10.3522  -20.9654   33.5668 H   0  0  0  0  0  0  0  0  0  0  0  0
  -11.2041  -19.5704   33.1512 H   0  0  0  0  0  0  0  0  0  0  0  0
  -10.5071  -20.6172   31.9198 H   0  0  0  0  0  0  0  0  0  0  0  0
  -13.5601  -21.5627   34.1384 H   0  0  0  0  0  0  0  0  0  0  0  0
  -12.8253  -20.0185   34.2743 H   0  0  0  0  0  0  0  0  0  0  0  0
  -12.3889  -21.9177   35.9172 H   0  0  0  0  0  0  0  0  0  0  0  0
  -10.9473  -20.9570   35.4073 H   0  0  0  0  0  0  0  0  0  0  0  0
   -9.9248  -22.2107   36.3496 H   0  0  0  0  0  0  0  0  0  0  0  0
   -9.8161  -23.8270   35.9868 H   0  0  0  0  0  0  0  0  0  0  0  0
  -11.3083  -23.3475   36.7691 H   0  0  0  0  0  0  0  0  0  0  0  0
  -10.1844  -24.5956   31.0668 H   0  0  0  0  0  0  0  0  0  0  0  0
   -9.1841  -27.1349   31.0916 H   0  0  0  0  0  0  0  0  0  0  0  0
   -8.2641  -27.3572   33.4618 H   0  0  0  0  0  0  0  0  0  0  0  0
  -13.6347  -24.8012   30.3680 H   0  0  0  0  0  0  0  0  0  0  0  0
  -13.3290  -26.0294   28.1642 H   0  0  0  0  0  0  0  0  0  0  0  0
  1  2  1  0
  2  3  2  0
  3  4  1  0
  4  5  1  0
  5  6  1  0
  6  7  2  0
  6  8  1  0
  8  9  1  0
  8 10  1  0
 10 11  1  0
 11 12  1  0
 12 13  1  0
 12 14  1  0
 14 15  2  0
 14 16  1  0
 16 17  1  0
 17 18  2  0
 18 19  1  0
 19 20  1  0
  4 21  2  0
 21 22  1  0
 22  2  1  0
 20 16  2  0
  1 23  1  0
  1 24  1  0
  1 25  1  0
  5 26  1  0
  5 27  1  0
  9 28  1  0
  9 29  1  0
  9 30  1  0
 10 31  1  0
 10 32  1  0
 11 33  1  0
 11 34  1  0
 13 35  1  0
 13 36  1  0
 13 37  1  0
 17 38  1  0
 18 39  1  0
 19 40  1  0
 21 41  1  0
 22 42  1  0
M  END
>  <Energy>  (115) 
250.11009105589096

>  <compound_id>  (115) 
10608

>  <target_id>  (115) 
1

>  <reference_id>  (115) 
35

>  <inspiration_ids>  (115) 
[35, 96]

>  <energy_score>  (115) 
164.020936699669

>  <distance_score>  (115) 
2.5439202020284664

>  <path>  (115) 
/opt/xchem-fragalysis-2/maxwin/BulkDock/SCRATCH/511017/C10608-P35/C10608-P35.minimised.mol

>  <scratch_subdir>  (115) 
/opt/xchem-fragalysis-2/maxwin/BulkDock/SCRATCH/511017/C10608-P35

>  <fragmenstein_runtime>  (115) 
8.36803913116455

>  <fragmenstein_outcome>  (115) 
too moved

>  <fragmenstein_mode>  (115) 
expansion

>  <fragmenstein_error>  (115) 


$$$$
C10608-P96
     RDKit          3D

 42 43  0  0  0  0  0  0  0  0999 V2000
  -10.9952  -24.9081   27.2997 C   0  0  0  0  0  0  0  0  0  0  0  0
  -11.0266  -23.7488   28.2184 C   0  0  0  0  0  0  0  0  0  0  0  0
  -10.8988  -23.7724   29.5299 N   0  0  0  0  0  0  0  0  0  0  0  0
  -11.0890  -22.4736   29.9510 C   0  0  0  0  0  0  0  0  0  0  0  0
  -11.0989  -22.0850   31.3825 C   0  0  0  0  0  0  0  0  0  0  0  0
  -12.5135  -22.0505   31.9685 C   0  0  0  0  0  0  0  0  0  0  0  0
  -13.3049  -22.9178   31.7094 O   0  0  0  0  0  0  0  0  0  0  0  0
  -12.6131  -20.9277   32.8737 N   0  0  0  0  0  0  0  0  0  0  0  0
  -12.1021  -21.3121   34.2276 C   0  0  0  0  0  0  0  0  0  0  0  0
  -13.8060  -20.4112   33.7153 C   0  0  0  0  0  0  0  0  0  0  0  0
  -15.1068  -20.1866   32.8561 C   0  0  0  0  0  0  0  0  0  0  0  0
  -15.9792  -21.4249   32.7262 N   0  0  0  0  0  0  0  0  0  0  0  0
  -16.8288  -20.6683   33.6982 C   0  0  0  0  0  0  0  0  0  0  0  0
  -15.7778  -22.7529   33.1866 C   0  0  0  0  0  0  0  0  0  0  0  0
  -14.9120  -23.2140   33.8722 O   0  0  0  0  0  0  0  0  0  0  0  0
  -16.7604  -23.7213   32.6323 C   0  0  0  0  0  0  0  0  0  0  0  0
  -17.8734  -23.4965   31.7836 C   0  0  0  0  0  0  0  0  0  0  0  0
  -18.3732  -24.7424   31.4934 C   0  0  0  0  0  0  0  0  0  0  0  0
  -17.6013  -25.6251   32.1828 N   0  0  0  0  0  0  0  0  0  0  0  0
  -16.6189  -25.0447   32.8707 N   0  0  0  0  0  0  0  0  0  0  0  0
  -11.2150  -21.6455   28.8645 C   0  0  0  0  0  0  0  0  0  0  0  0
  -11.2368  -22.4693   27.7775 N   0  0  0  0  0  0  0  0  0  0  0  0
  -10.7236  -24.6070   26.2834 H   0  0  0  0  0  0  0  0  0  0  0  0
  -10.2625  -25.6444   27.6437 H   0  0  0  0  0  0  0  0  0  0  0  0
  -11.9773  -25.3891   27.2657 H   0  0  0  0  0  0  0  0  0  0  0  0
  -10.5122  -22.8024   31.9678 H   0  0  0  0  0  0  0  0  0  0  0  0
  -10.6256  -21.1029   31.4990 H   0  0  0  0  0  0  0  0  0  0  0  0
  -11.0764  -21.6680   34.0594 H   0  0  0  0  0  0  0  0  0  0  0  0
  -12.6012  -22.2013   34.6316 H   0  0  0  0  0  0  0  0  0  0  0  0
  -11.9678  -20.4800   34.9342 H   0  0  0  0  0  0  0  0  0  0  0  0
  -14.1440  -21.0214   34.5641 H   0  0  0  0  0  0  0  0  0  0  0  0
  -13.5172  -19.4098   34.0724 H   0  0  0  0  0  0  0  0  0  0  0  0
  -14.7558  -20.0689   31.8205 H   0  0  0  0  0  0  0  0  0  0  0  0
  -15.5396  -19.1856   33.0392 H   0  0  0  0  0  0  0  0  0  0  0  0
  -16.3594  -20.4530   34.6715 H   0  0  0  0  0  0  0  0  0  0  0  0
  -17.6565  -21.3413   33.9696 H   0  0  0  0  0  0  0  0  0  0  0  0
  -17.3490  -19.8142   33.2377 H   0  0  0  0  0  0  0  0  0  0  0  0
  -18.2258  -22.5474   31.4049 H   0  0  0  0  0  0  0  0  0  0  0  0
  -19.2038  -25.0686   30.8839 H   0  0  0  0  0  0  0  0  0  0  0  0
  -17.6897  -26.6351   32.2340 H   0  0  0  0  0  0  0  0  0  0  0  0
  -11.3318  -20.5777   28.7764 H   0  0  0  0  0  0  0  0  0  0  0  0
  -11.4354  -22.1766   26.8278 H   0  0  0  0  0  0  0  0  0  0  0  0
  1  2  1  0
  2  3  2  0
  3  4  1  0
  4  5  1  0
  5  6  1  0
  6  7  2  0
  6  8  1  0
  8  9  1  0
  8 10  1  0
 10 11  1  0
 11 12  1  0
 12 13  1  0
 12 14  1  0
 14 15  2  0
 14 16  1  0
 16 17  1  0
 17 18  2  0
 18 19  1  0
 19 20  1  0
  4 21  2  0
 21 22  1  0
 22  2  1  0
 20 16  2  0
  1 23  1  0
  1 24  1  0
  1 25  1  0
  5 26  1  0
  5 27  1  0
  9 28  1  0
  9 29  1  0
  9 30  1  0
 10 31  1  0
 10 32  1  0
 11 33  1  0
 11 34  1  0
 13 35  1  0
 13 36  1  0
 13 37  1  0
 17 38  1  0
 18 39  1  0
 19 40  1  0
 21 41  1  0
 22 42  1  0
M  END
>  <Energy>  (116) 
222.74538655719473

>  <compound_id>  (116) 
10608

>  <target_id>  (116) 
1

>  <reference_id>  (116) 
96

>  <inspiration_ids>  (116) 
[35, 96]

>  <energy_score>  (116) 
136.65623220096944

>  <distance_score>  (116) 
5.220579360933646

>  <path>  (116) 
/opt/xchem-fragalysis-2/maxwin/BulkDock/SCRATCH/511017/C10608-P96/C10608-P96.minimised.mol

>  <scratch_subdir>  (116) 
/opt/xchem-fragalysis-2/maxwin/BulkDock/SCRATCH/511017/C10608-P96

>  <fragmenstein_runtime>  (116) 
9.077171325683594

>  <fragmenstein_outcome>  (116) 
too moved

>  <fragmenstein_mode>  (116) 
expansion

>  <fragmenstein_error>  (116) 


$$$$
C10609-P35
     RDKit          3D

 42 43  0  0  0  0  0  0  0  0999 V2000
  -13.5336  -25.7359   30.2278 C   0  0  0  0  0  0  0  0  0  0  0  0
  -12.6043  -24.7772   29.6045 C   0  0  0  0  0  0  0  0  0  0  0  0
  -11.7508  -25.1366   28.5946 N   0  0  0  0  0  0  0  0  0  0  0  0
  -11.1180  -24.0089   28.1726 C   0  0  0  0  0  0  0  0  0  0  0  0
  -11.4366  -22.9751   28.9097 N   0  0  0  0  0  0  0  0  0  0  0  0
  -12.3738  -23.4316   29.8147 C   0  0  0  0  0  0  0  0  0  0  0  0
  -13.0727  -22.4439   30.6801 C   0  0  0  0  0  0  0  0  0  0  0  0
  -12.7160  -22.3503   32.1469 C   0  0  0  0  0  0  0  0  0  0  0  0
  -12.8733  -23.3018   32.8562 O   0  0  0  0  0  0  0  0  0  0  0  0
  -12.1930  -21.0431   32.4390 N   0  0  0  0  0  0  0  0  0  0  0  0
  -10.7268  -21.0178   32.2087 C   0  0  0  0  0  0  0  0  0  0  0  0
  -11.7653  -20.3899   33.8036 C   0  0  0  0  0  0  0  0  0  0  0  0
  -10.8148  -21.0608   34.8365 C   0  0  0  0  0  0  0  0  0  0  0  0
  -10.7710  -22.4636   34.4349 N   0  0  0  0  0  0  0  0  0  0  0  0
  -11.7716  -22.5749   35.5241 C   0  0  0  0  0  0  0  0  0  0  0  0
   -9.7952  -23.4140   34.5861 C   0  0  0  0  0  0  0  0  0  0  0  0
   -8.7688  -23.3674   35.1628 O   0  0  0  0  0  0  0  0  0  0  0  0
  -10.0031  -24.7081   33.7903 C   0  0  0  0  0  0  0  0  0  0  0  0
  -10.3816  -24.7952   32.4183 C   0  0  0  0  0  0  0  0  0  0  0  0
   -9.8990  -25.9880   31.9348 C   0  0  0  0  0  0  0  0  0  0  0  0
   -9.2071  -26.5211   32.9694 N   0  0  0  0  0  0  0  0  0  0  0  0
   -9.3834  -25.8638   34.1150 N   0  0  0  0  0  0  0  0  0  0  0  0
  -12.9850  -26.5628   30.6896 H   0  0  0  0  0  0  0  0  0  0  0  0
  -14.1394  -25.2577   31.0035 H   0  0  0  0  0  0  0  0  0  0  0  0
  -14.2166  -26.1520   29.4802 H   0  0  0  0  0  0  0  0  0  0  0  0
  -11.6605  -26.0566   28.1882 H   0  0  0  0  0  0  0  0  0  0  0  0
  -10.4542  -23.9950   27.3227 H   0  0  0  0  0  0  0  0  0  0  0  0
  -12.8409  -21.4905   30.2124 H   0  0  0  0  0  0  0  0  0  0  0  0
  -14.1494  -22.6095   30.6462 H   0  0  0  0  0  0  0  0  0  0  0  0
  -10.1282  -20.1501   32.5011 H   0  0  0  0  0  0  0  0  0  0  0  0
  -10.2228  -21.9561   32.4111 H   0  0  0  0  0  0  0  0  0  0  0  0
  -10.6690  -21.0139   31.1127 H   0  0  0  0  0  0  0  0  0  0  0  0
  -11.5073  -19.3330   33.6868 H   0  0  0  0  0  0  0  0  0  0  0  0
  -12.7435  -20.3266   34.3029 H   0  0  0  0  0  0  0  0  0  0  0  0
   -9.7956  -20.7133   34.5981 H   0  0  0  0  0  0  0  0  0  0  0  0
  -10.8945  -20.6499   35.8566 H   0  0  0  0  0  0  0  0  0  0  0  0
  -11.3795  -22.2426   36.4952 H   0  0  0  0  0  0  0  0  0  0  0  0
  -12.7592  -22.1870   35.2815 H   0  0  0  0  0  0  0  0  0  0  0  0
  -11.8410  -23.5723   35.8954 H   0  0  0  0  0  0  0  0  0  0  0  0
  -10.8019  -24.0215   31.8114 H   0  0  0  0  0  0  0  0  0  0  0  0
   -9.8821  -26.4202   30.9471 H   0  0  0  0  0  0  0  0  0  0  0  0
   -8.5679  -27.3154   32.9768 H   0  0  0  0  0  0  0  0  0  0  0  0
  1  2  1  0
  2  3  1  0
  3  4  1  0
  4  5  2  0
  5  6  1  0
  6  7  1  0
  7  8  1  0
  8  9  2  0
  8 10  1  0
 10 11  1  0
 10 12  1  0
 12 13  1  0
 13 14  1  0
 14 15  1  0
 14 16  1  0
 16 17  2  0
 16 18  1  0
 18 19  1  0
 19 20  2  0
 20 21  1  0
 21 22  1  0
  6  2  2  0
 22 18  2  0
  1 23  1  0
  1 24  1  0
  1 25  1  0
  3 26  1  0
  4 27  1  0
  7 28  1  0
  7 29  1  0
 11 30  1  0
 11 31  1  0
 11 32  1  0
 12 33  1  0
 12 34  1  0
 13 35  1  0
 13 36  1  0
 15 37  1  0
 15 38  1  0
 15 39  1  0
 19 40  1  0
 20 41  1  0
 21 42  1  0
M  END
>  <Energy>  (117) 
252.78583805566601

>  <compound_id>  (117) 
10609

>  <target_id>  (117) 
1

>  <reference_id>  (117) 
35

>  <inspiration_ids>  (117) 
[35, 96]

>  <energy_score>  (117) 
151.90917654911243

>  <distance_score>  (117) 
2.3122410277402636

>  <path>  (117) 
/opt/xchem-fragalysis-2/maxwin/BulkDock/SCRATCH/511017/C10609-P35/C10609-P35.minimised.mol

>  <scratch_subdir>  (117) 
/opt/xchem-fragalysis-2/maxwin/BulkDock/SCRATCH/511017/C10609-P35

>  <fragmenstein_runtime>  (117) 
8.718589067459106

>  <fragmenstein_outcome>  (117) 
too moved

>  <fragmenstein_mode>  (117) 
expansion

>  <fragmenstein_error>  (117) 


$$$$
C10609-P96
     RDKit          3D

 42 43  0  0  0  0  0  0  0  0999 V2000
  -12.0076  -24.0207   26.6829 C   0  0  0  0  0  0  0  0  0  0  0  0
  -10.8483  -23.9529   27.5881 C   0  0  0  0  0  0  0  0  0  0  0  0
  -10.0922  -25.0597   27.8846 N   0  0  0  0  0  0  0  0  0  0  0  0
   -9.1232  -24.6813   28.7599 C   0  0  0  0  0  0  0  0  0  0  0  0
   -9.1678  -23.3956   28.9935 N   0  0  0  0  0  0  0  0  0  0  0  0
  -10.3420  -22.9679   28.4195 C   0  0  0  0  0  0  0  0  0  0  0  0
  -10.9763  -21.7242   28.9619 C   0  0  0  0  0  0  0  0  0  0  0  0
  -11.3013  -22.0027   30.4424 C   0  0  0  0  0  0  0  0  0  0  0  0
  -11.1789  -23.1346   30.8286 O   0  0  0  0  0  0  0  0  0  0  0  0
  -11.7995  -20.8440   31.1122 N   0  0  0  0  0  0  0  0  0  0  0  0
  -10.6857  -20.1259   31.7863 C   0  0  0  0  0  0  0  0  0  0  0  0
  -12.4387  -20.6880   32.4851 C   0  0  0  0  0  0  0  0  0  0  0  0
  -13.9401  -21.1611   32.4344 C   0  0  0  0  0  0  0  0  0  0  0  0
  -13.9577  -22.6001   31.9916 N   0  0  0  0  0  0  0  0  0  0  0  0
  -15.1957  -22.6182   32.8366 C   0  0  0  0  0  0  0  0  0  0  0  0
  -13.1168  -23.6783   32.3345 C   0  0  0  0  0  0  0  0  0  0  0  0
  -12.2287  -23.7466   33.1336 O   0  0  0  0  0  0  0  0  0  0  0  0
  -13.4698  -24.9055   31.5801 C   0  0  0  0  0  0  0  0  0  0  0  0
  -13.4083  -25.0998   30.1806 C   0  0  0  0  0  0  0  0  0  0  0  0
  -13.7283  -26.4169   29.9717 C   0  0  0  0  0  0  0  0  0  0  0  0
  -13.9554  -26.9382   31.2080 N   0  0  0  0  0  0  0  0  0  0  0  0
  -13.8492  -26.0434   32.1982 N   0  0  0  0  0  0  0  0  0  0  0  0
  -12.0211  -24.9672   26.1346 H   0  0  0  0  0  0  0  0  0  0  0  0
  -12.9425  -23.9635   27.2397 H   0  0  0  0  0  0  0  0  0  0  0  0
  -11.9788  -23.2039   25.9564 H   0  0  0  0  0  0  0  0  0  0  0  0
  -10.2374  -25.9928   27.5296 H   0  0  0  0  0  0  0  0  0  0  0  0
   -8.3875  -25.3572   29.1654 H   0  0  0  0  0  0  0  0  0  0  0  0
  -10.3165  -20.8639   28.8537 H   0  0  0  0  0  0  0  0  0  0  0  0
  -11.9151  -21.5328   28.4528 H   0  0  0  0  0  0  0  0  0  0  0  0
  -10.0658  -19.7938   30.9537 H   0  0  0  0  0  0  0  0  0  0  0  0
  -10.0591  -20.8073   32.3803 H   0  0  0  0  0  0  0  0  0  0  0  0
  -10.8735  -19.1787   32.3041 H   0  0  0  0  0  0  0  0  0  0  0  0
  -11.9343  -21.3142   33.2375 H   0  0  0  0  0  0  0  0  0  0  0  0
  -12.5422  -19.6605   32.8569 H   0  0  0  0  0  0  0  0  0  0  0  0
  -14.2634  -20.8921   33.4575 H   0  0  0  0  0  0  0  0  0  0  0  0
  -14.4793  -20.5511   31.6983 H   0  0  0  0  0  0  0  0  0  0  0  0
  -15.6490  -23.6099   32.6944 H   0  0  0  0  0  0  0  0  0  0  0  0
  -14.9867  -22.5745   33.9055 H   0  0  0  0  0  0  0  0  0  0  0  0
  -15.9931  -21.9189   32.5399 H   0  0  0  0  0  0  0  0  0  0  0  0
  -13.1206  -24.3636   29.4488 H   0  0  0  0  0  0  0  0  0  0  0  0
  -13.7928  -27.0185   29.0774 H   0  0  0  0  0  0  0  0  0  0  0  0
  -14.2027  -27.8922   31.4507 H   0  0  0  0  0  0  0  0  0  0  0  0
  1  2  1  0
  2  3  1  0
  3  4  1  0
  4  5  2  0
  5  6  1  0
  6  7  1  0
  7  8  1  0
  8  9  2  0
  8 10  1  0
 10 11  1  0
 10 12  1  0
 12 13  1  0
 13 14  1  0
 14 15  1  0
 14 16  1  0
 16 17  2  0
 16 18  1  0
 18 19  1  0
 19 20  2  0
 20 21  1  0
 21 22  1  0
  6  2  2  0
 22 18  2  0
  1 23  1  0
  1 24  1  0
  1 25  1  0
  3 26  1  0
  4 27  1  0
  7 28  1  0
  7 29  1  0
 11 30  1  0
 11 31  1  0
 11 32  1  0
 12 33  1  0
 12 34  1  0
 13 35  1  0
 13 36  1  0
 15 37  1  0
 15 38  1  0
 15 39  1  0
 19 40  1  0
 20 41  1  0
 21 42  1  0
M  END
>  <Energy>  (118) 
232.69347341907297

>  <compound_id>  (118) 
10609

>  <target_id>  (118) 
1

>  <reference_id>  (118) 
96

>  <inspiration_ids>  (118) 
[35, 96]

>  <energy_score>  (118) 
131.81681191251624

>  <distance_score>  (118) 
3.3249695422433287

>  <path>  (118) 
/opt/xchem-fragalysis-2/maxwin/BulkDock/SCRATCH/511017/C10609-P96/C10609-P96.minimised.mol

>  <scratch_subdir>  (118) 
/opt/xchem-fragalysis-2/maxwin/BulkDock/SCRATCH/511017/C10609-P96

>  <fragmenstein_runtime>  (118) 
5.452161073684692

>  <fragmenstein_outcome>  (118) 
too moved

>  <fragmenstein_mode>  (118) 
expansion

>  <fragmenstein_error>  (118) 


$$$$
C10610-P35
     RDKit          3D

 28 29  0  0  0  0  0  0  0  0999 V2000
   -9.3859  -28.4638   30.9215 C   0  0  0  0  0  0  0  0  0  0  0  0
  -10.7029  -28.2196   31.4093 O   0  0  0  0  0  0  0  0  0  0  0  0
  -11.1335  -26.9308   31.3178 C   0  0  0  0  0  0  0  0  0  0  0  0
  -12.2726  -26.7017   30.9282 O   0  0  0  0  0  0  0  0  0  0  0  0
  -10.0773  -25.9040   31.6739 C   0  0  0  0  0  0  0  0  0  0  0  0
  -10.6306  -24.5703   31.9885 C   0  0  0  0  0  0  0  0  0  0  0  0
  -10.3097  -23.8747   33.0636 N   0  0  0  0  0  0  0  0  0  0  0  0
  -10.9898  -22.6962   32.9476 C   0  0  0  0  0  0  0  0  0  0  0  0
  -10.7769  -21.5802   33.8514 C   0  0  0  0  0  0  0  0  0  0  0  0
  -11.8092  -20.8916   34.5139 C   0  0  0  0  0  0  0  0  0  0  0  0
  -11.1954  -19.7770   35.0362 C   0  0  0  0  0  0  0  0  0  0  0  0
   -9.8832  -19.8630   34.6682 N   0  0  0  0  0  0  0  0  0  0  0  0
   -9.5953  -20.9730   33.9839 N   0  0  0  0  0  0  0  0  0  0  0  0
  -11.7417  -22.6686   31.7973 C   0  0  0  0  0  0  0  0  0  0  0  0
  -11.4168  -23.8226   31.1456 N   0  0  0  0  0  0  0  0  0  0  0  0
  -11.6980  -24.0673   29.7525 C   0  0  0  0  0  0  0  0  0  0  0  0
   -9.3765  -28.3282   29.8389 H   0  0  0  0  0  0  0  0  0  0  0  0
   -9.1345  -29.4845   31.1772 H   0  0  0  0  0  0  0  0  0  0  0  0
   -8.6356  -27.8534   31.4211 H   0  0  0  0  0  0  0  0  0  0  0  0
   -9.5442  -26.2540   32.5662 H   0  0  0  0  0  0  0  0  0  0  0  0
   -9.3707  -25.8056   30.8433 H   0  0  0  0  0  0  0  0  0  0  0  0
  -12.8581  -21.1506   34.5470 H   0  0  0  0  0  0  0  0  0  0  0  0
  -11.5711  -18.9260   35.5844 H   0  0  0  0  0  0  0  0  0  0  0  0
   -9.1348  -19.1967   34.8295 H   0  0  0  0  0  0  0  0  0  0  0  0
  -12.3618  -21.9042   31.3578 H   0  0  0  0  0  0  0  0  0  0  0  0
  -11.6445  -23.1187   29.2095 H   0  0  0  0  0  0  0  0  0  0  0  0
  -10.9617  -24.7549   29.3317 H   0  0  0  0  0  0  0  0  0  0  0  0
  -12.7071  -24.4775   29.6715 H   0  0  0  0  0  0  0  0  0  0  0  0
  1  2  1  0
  2  3  1  0
  3  4  2  0
  3  5  1  0
  5  6  1  0
  6  7  2  0
  7  8  1  0
  8  9  1  0
  9 10  1  0
 10 11  2  0
 11 12  1  0
 12 13  1  0
  8 14  2  0
 14 15  1  0
 15 16  1  0
 15  6  1  0
 13  9  2  0
  1 17  1  0
  1 18  1  0
  1 19  1  0
  5 20  1  0
  5 21  1  0
 10 22  1  0
 11 23  1  0
 12 24  1  0
 14 25  1  0
 16 26  1  0
 16 27  1  0
 16 28  1  0
M  END
>  <Energy>  (119) 
57.732886751415585

>  <compound_id>  (119) 
10610

>  <target_id>  (119) 
1

>  <reference_id>  (119) 
35

>  <inspiration_ids>  (119) 
[35, 96]

>  <energy_score>  (119) 
0.4843329583474656

>  <distance_score>  (119) 
1.3302644474072656

>  <path>  (119) 
/opt/xchem-fragalysis-2/maxwin/BulkDock/SCRATCH/511017/C10610-P35/C10610-P35.minimised.mol

>  <scratch_subdir>  (119) 
/opt/xchem-fragalysis-2/maxwin/BulkDock/SCRATCH/511017/C10610-P35

>  <fragmenstein_runtime>  (119) 
1.6004087924957275

>  <fragmenstein_outcome>  (119) 
too moved

>  <fragmenstein_mode>  (119) 
expansion

>  <fragmenstein_error>  (119) 


$$$$
C10610-P96
     RDKit          3D

 28 29  0  0  0  0  0  0  0  0999 V2000
   -8.8045  -24.9590   29.6735 C   0  0  0  0  0  0  0  0  0  0  0  0
   -9.8101  -25.6840   28.9440 O   0  0  0  0  0  0  0  0  0  0  0  0
  -10.8374  -26.3303   29.5465 C   0  0  0  0  0  0  0  0  0  0  0  0
  -11.4011  -27.2607   28.9716 O   0  0  0  0  0  0  0  0  0  0  0  0
  -11.2897  -25.8765   30.9041 C   0  0  0  0  0  0  0  0  0  0  0  0
  -11.3671  -24.3995   31.0638 C   0  0  0  0  0  0  0  0  0  0  0  0
  -11.2480  -23.7713   32.2249 N   0  0  0  0  0  0  0  0  0  0  0  0
  -11.3259  -22.4412   31.9173 C   0  0  0  0  0  0  0  0  0  0  0  0
  -11.4289  -21.3577   32.8669 C   0  0  0  0  0  0  0  0  0  0  0  0
  -12.0267  -21.4514   34.1260 C   0  0  0  0  0  0  0  0  0  0  0  0
  -12.1338  -20.1491   34.5387 C   0  0  0  0  0  0  0  0  0  0  0  0
  -11.5655  -19.3922   33.5723 N   0  0  0  0  0  0  0  0  0  0  0  0
  -11.1775  -20.0923   32.5044 N   0  0  0  0  0  0  0  0  0  0  0  0
  -11.4479  -22.2500   30.5687 C   0  0  0  0  0  0  0  0  0  0  0  0
  -11.5689  -23.4932   30.0461 N   0  0  0  0  0  0  0  0  0  0  0  0
  -11.8400  -23.7007   28.6486 C   0  0  0  0  0  0  0  0  0  0  0  0
   -8.7542  -25.2431   30.7266 H   0  0  0  0  0  0  0  0  0  0  0  0
   -8.9579  -23.8838   29.5639 H   0  0  0  0  0  0  0  0  0  0  0  0
   -7.8539  -25.1921   29.1985 H   0  0  0  0  0  0  0  0  0  0  0  0
  -12.2899  -26.2883   31.0842 H   0  0  0  0  0  0  0  0  0  0  0  0
  -10.6202  -26.3077   31.6538 H   0  0  0  0  0  0  0  0  0  0  0  0
  -12.3771  -22.3356   34.6325 H   0  0  0  0  0  0  0  0  0  0  0  0
  -12.5233  -19.6903   35.4229 H   0  0  0  0  0  0  0  0  0  0  0  0
  -11.3955  -18.3911   33.5872 H   0  0  0  0  0  0  0  0  0  0  0  0
  -11.5414  -21.3451   29.9836 H   0  0  0  0  0  0  0  0  0  0  0  0
  -12.3683  -22.8268   28.2689 H   0  0  0  0  0  0  0  0  0  0  0  0
  -10.9062  -23.7767   28.0917 H   0  0  0  0  0  0  0  0  0  0  0  0
  -12.4805  -24.5741   28.5162 H   0  0  0  0  0  0  0  0  0  0  0  0
  1  2  1  0
  2  3  1  0
  3  4  2  0
  3  5  1  0
  5  6  1  0
  6  7  2  0
  7  8  1  0
  8  9  1  0
  9 10  1  0
 10 11  2  0
 11 12  1  0
 12 13  1  0
  8 14  2  0
 14 15  1  0
 15 16  1  0
 15  6  1  0
 13  9  2  0
  1 17  1  0
  1 18  1  0
  1 19  1  0
  5 20  1  0
  5 21  1  0
 10 22  1  0
 11 23  1  0
 12 24  1  0
 14 25  1  0
 16 26  1  0
 16 27  1  0
 16 28  1  0
M  END
>  <Energy>  (120) 
56.407390249672794

>  <compound_id>  (120) 
10610

>  <target_id>  (120) 
1

>  <reference_id>  (120) 
96

>  <inspiration_ids>  (120) 
[35, 96]

>  <energy_score>  (120) 
-0.8411635433943303

>  <distance_score>  (120) 
2.2589075386693747

>  <path>  (120) 
/opt/xchem-fragalysis-2/maxwin/BulkDock/SCRATCH/511017/C10610-P96/C10610-P96.minimised.mol

>  <scratch_subdir>  (120) 
/opt/xchem-fragalysis-2/maxwin/BulkDock/SCRATCH/511017/C10610-P96

>  <fragmenstein_runtime>  (120) 
1.6641592979431152

>  <fragmenstein_outcome>  (120) 
too moved

>  <fragmenstein_mode>  (120) 
expansion

>  <fragmenstein_error>  (120) 


$$$$
C10611-P35
     RDKit          3D

 45 46  0  0  0  0  0  0  0  0999 V2000
  -10.3772  -23.3780   33.7452 C   0  0  0  0  0  0  0  0  0  0  0  0
  -10.9703  -22.3685   32.7810 C   0  0  0  0  0  0  0  0  0  0  0  0
  -12.2036  -22.9036   32.0001 C   0  0  0  0  0  0  0  0  0  0  0  0
  -11.6303  -23.8998   30.9799 N   0  0  0  0  0  0  0  0  0  0  0  0
  -11.8904  -22.7573   30.0410 C   0  0  0  0  0  0  0  0  0  0  0  0
  -12.1759  -25.1067   30.4458 C   0  0  0  0  0  0  0  0  0  0  0  0
  -13.2596  -25.6052   30.5886 O   0  0  0  0  0  0  0  0  0  0  0  0
  -11.0555  -25.8117   29.6702 C   0  0  0  0  0  0  0  0  0  0  0  0
  -10.3511  -26.7673   30.6375 C   0  0  0  0  0  0  0  0  0  0  0  0
  -11.5934  -26.5764   28.4686 C   0  0  0  0  0  0  0  0  0  0  0  0
  -12.1441  -25.7178   27.4423 N   0  0  0  0  0  0  0  0  0  0  0  0
  -11.5390  -24.6430   26.8597 C   0  0  0  0  0  0  0  0  0  0  0  0
  -12.4485  -24.1750   25.9461 C   0  0  0  0  0  0  0  0  0  0  0  0
  -13.5658  -24.9664   25.9312 N   0  0  0  0  0  0  0  0  0  0  0  0
  -13.3686  -25.8683   26.8636 C   0  0  0  0  0  0  0  0  0  0  0  0
  -11.0225  -21.1278   33.4774 N   0  0  0  0  0  0  0  0  0  0  0  0
  -12.0978  -20.4528   34.0905 C   0  0  0  0  0  0  0  0  0  0  0  0
  -13.2633  -20.7048   34.1185 O   0  0  0  0  0  0  0  0  0  0  0  0
  -11.5132  -19.3308   34.8516 C   0  0  0  0  0  0  0  0  0  0  0  0
  -12.1667  -18.2702   35.5092 C   0  0  0  0  0  0  0  0  0  0  0  0
  -11.1548  -17.4870   36.0057 C   0  0  0  0  0  0  0  0  0  0  0  0
   -9.9877  -18.0748   35.6195 N   0  0  0  0  0  0  0  0  0  0  0  0
  -10.1683  -19.2362   34.9800 N   0  0  0  0  0  0  0  0  0  0  0  0
   -9.3664  -23.0723   34.0281 H   0  0  0  0  0  0  0  0  0  0  0  0
  -10.3238  -24.3864   33.3275 H   0  0  0  0  0  0  0  0  0  0  0  0
  -10.9505  -23.3847   34.6730 H   0  0  0  0  0  0  0  0  0  0  0  0
  -10.2095  -22.1635   32.0416 H   0  0  0  0  0  0  0  0  0  0  0  0
  -12.9394  -22.1323   31.7129 H   0  0  0  0  0  0  0  0  0  0  0  0
  -12.7921  -23.5318   32.6777 H   0  0  0  0  0  0  0  0  0  0  0  0
  -12.9537  -22.6934   29.7748 H   0  0  0  0  0  0  0  0  0  0  0  0
  -11.4297  -21.7867   30.2773 H   0  0  0  0  0  0  0  0  0  0  0  0
  -11.4075  -23.0336   29.0967 H   0  0  0  0  0  0  0  0  0  0  0  0
  -10.3103  -25.0794   29.3371 H   0  0  0  0  0  0  0  0  0  0  0  0
   -9.5518  -27.3155   30.1311 H   0  0  0  0  0  0  0  0  0  0  0  0
  -11.0515  -27.4986   31.0564 H   0  0  0  0  0  0  0  0  0  0  0  0
   -9.9070  -26.2201   31.4762 H   0  0  0  0  0  0  0  0  0  0  0  0
  -12.3711  -27.2901   28.7663 H   0  0  0  0  0  0  0  0  0  0  0  0
  -10.7919  -27.1483   27.9845 H   0  0  0  0  0  0  0  0  0  0  0  0
  -10.5622  -24.2839   27.1378 H   0  0  0  0  0  0  0  0  0  0  0  0
  -12.3601  -23.3160   25.2919 H   0  0  0  0  0  0  0  0  0  0  0  0
  -14.0702  -26.6422   27.1495 H   0  0  0  0  0  0  0  0  0  0  0  0
  -10.1464  -20.6626   33.7377 H   0  0  0  0  0  0  0  0  0  0  0  0
  -13.2291  -18.0863   35.5710 H   0  0  0  0  0  0  0  0  0  0  0  0
  -11.1611  -16.5518   36.5458 H   0  0  0  0  0  0  0  0  0  0  0  0
   -9.0382  -17.7421   35.7641 H   0  0  0  0  0  0  0  0  0  0  0  0
  1  2  1  0
  2  3  1  0
  3  4  1  0
  4  5  1  0
  4  6  1  0
  6  7  2  0
  6  8  1  0
  8  9  1  0
  8 10  1  0
 10 11  1  0
 11 12  1  0
 12 13  2  0
 13 14  1  0
 14 15  2  0
  2 16  1  0
 16 17  1  0
 17 18  2  0
 17 19  1  0
 19 20  1  0
 20 21  2  0
 21 22  1  0
 22 23  1  0
 15 11  1  0
 23 19  2  0
  1 24  1  0
  1 25  1  0
  1 26  1  0
  2 27  1  0
  3 28  1  0
  3 29  1  0
  5 30  1  0
  5 31  1  0
  5 32  1  0
  8 33  1  0
  9 34  1  0
  9 35  1  0
  9 36  1  0
 10 37  1  0
 10 38  1  0
 12 39  1  0
 13 40  1  0
 15 41  1  0
 16 42  1  0
 20 43  1  0
 21 44  1  0
 22 45  1  0
M  END
>  <Energy>  (121) 
101.24230846912839

>  <compound_id>  (121) 
10611

>  <target_id>  (121) 
1

>  <reference_id>  (121) 
35

>  <inspiration_ids>  (121) 
[35, 96]

>  <energy_score>  (121) 
27.27326334132431

>  <distance_score>  (121) 
4.958623560190409

>  <path>  (121) 
/opt/xchem-fragalysis-2/maxwin/BulkDock/SCRATCH/511017/C10611-P35/C10611-P35.minimised.mol

>  <scratch_subdir>  (121) 
/opt/xchem-fragalysis-2/maxwin/BulkDock/SCRATCH/511017/C10611-P35

>  <fragmenstein_runtime>  (121) 
10.380377769470215

>  <fragmenstein_outcome>  (121) 
too moved

>  <fragmenstein_mode>  (121) 
expansion

>  <fragmenstein_error>  (121) 


$$$$
C10611-P96
     RDKit          3D

 45 46  0  0  0  0  0  0  0  0999 V2000
  -10.0776  -22.6707   32.9810 C   0  0  0  0  0  0  0  0  0  0  0  0
  -11.4184  -22.0006   32.7069 C   0  0  0  0  0  0  0  0  0  0  0  0
  -11.3695  -21.0690   31.4602 C   0  0  0  0  0  0  0  0  0  0  0  0
  -10.9532  -21.8893   30.2396 N   0  0  0  0  0  0  0  0  0  0  0  0
  -10.9958  -20.5483   29.5904 C   0  0  0  0  0  0  0  0  0  0  0  0
  -11.6816  -22.8323   29.4602 C   0  0  0  0  0  0  0  0  0  0  0  0
  -12.8348  -23.1568   29.5080 O   0  0  0  0  0  0  0  0  0  0  0  0
  -10.7143  -23.5175   28.4802 C   0  0  0  0  0  0  0  0  0  0  0  0
   -9.5480  -24.1653   29.2299 C   0  0  0  0  0  0  0  0  0  0  0  0
  -11.4528  -24.4901   27.5433 C   0  0  0  0  0  0  0  0  0  0  0  0
  -12.0918  -25.6306   28.1678 N   0  0  0  0  0  0  0  0  0  0  0  0
  -11.4732  -26.6647   28.8043 C   0  0  0  0  0  0  0  0  0  0  0  0
  -12.4685  -27.5390   29.1516 C   0  0  0  0  0  0  0  0  0  0  0  0
  -13.6888  -27.0524   28.7663 N   0  0  0  0  0  0  0  0  0  0  0  0
  -13.4269  -25.9165   28.1509 C   0  0  0  0  0  0  0  0  0  0  0  0
  -12.4539  -22.9818   32.5312 N   0  0  0  0  0  0  0  0  0  0  0  0
  -13.8563  -22.9039   32.7374 C   0  0  0  0  0  0  0  0  0  0  0  0
  -14.5324  -22.0269   33.1866 O   0  0  0  0  0  0  0  0  0  0  0  0
  -14.4606  -24.1838   32.3002 C   0  0  0  0  0  0  0  0  0  0  0  0
  -15.8237  -24.5563   32.3238 C   0  0  0  0  0  0  0  0  0  0  0  0
  -15.8617  -25.8110   31.7668 C   0  0  0  0  0  0  0  0  0  0  0  0
  -14.5773  -26.1110   31.4224 N   0  0  0  0  0  0  0  0  0  0  0  0
  -13.6895  -25.1973   31.8441 N   0  0  0  0  0  0  0  0  0  0  0  0
  -10.0823  -23.1444   33.9680 H   0  0  0  0  0  0  0  0  0  0  0  0
   -9.8570  -23.4561   32.2510 H   0  0  0  0  0  0  0  0  0  0  0  0
   -9.2580  -21.9488   32.9503 H   0  0  0  0  0  0  0  0  0  0  0  0
  -11.7001  -21.3844   33.5696 H   0  0  0  0  0  0  0  0  0  0  0  0
  -10.6519  -20.2844   31.7475 H   0  0  0  0  0  0  0  0  0  0  0  0
  -12.3973  -20.6926   31.3553 H   0  0  0  0  0  0  0  0  0  0  0  0
  -10.2731  -19.8164   29.9585 H   0  0  0  0  0  0  0  0  0  0  0  0
  -10.6758  -20.7260   28.5563 H   0  0  0  0  0  0  0  0  0  0  0  0
  -11.9982  -20.1315   29.4767 H   0  0  0  0  0  0  0  0  0  0  0  0
  -10.2970  -22.7411   27.8281 H   0  0  0  0  0  0  0  0  0  0  0  0
   -8.8462  -23.4079   29.5906 H   0  0  0  0  0  0  0  0  0  0  0  0
   -8.9843  -24.8426   28.5833 H   0  0  0  0  0  0  0  0  0  0  0  0
   -9.8882  -24.7200   30.1102 H   0  0  0  0  0  0  0  0  0  0  0  0
  -10.7547  -24.8981   26.8016 H   0  0  0  0  0  0  0  0  0  0  0  0
  -12.2259  -23.9490   26.9833 H   0  0  0  0  0  0  0  0  0  0  0  0
  -10.4142  -26.6905   28.9591 H   0  0  0  0  0  0  0  0  0  0  0  0
  -12.3727  -28.4848   29.6695 H   0  0  0  0  0  0  0  0  0  0  0  0
  -14.1562  -25.2646   27.6890 H   0  0  0  0  0  0  0  0  0  0  0  0
  -12.2382  -23.8556   32.0472 H   0  0  0  0  0  0  0  0  0  0  0  0
  -16.6571  -23.9606   32.6710 H   0  0  0  0  0  0  0  0  0  0  0  0
  -16.6755  -26.4879   31.5476 H   0  0  0  0  0  0  0  0  0  0  0  0
  -14.2454  -26.9005   30.8723 H   0  0  0  0  0  0  0  0  0  0  0  0
  1  2  1  0
  2  3  1  0
  3  4  1  0
  4  5  1  0
  4  6  1  0
  6  7  2  0
  6  8  1  0
  8  9  1  0
  8 10  1  0
 10 11  1  0
 11 12  1  0
 12 13  2  0
 13 14  1  0
 14 15  2  0
  2 16  1  0
 16 17  1  0
 17 18  2  0
 17 19  1  0
 19 20  1  0
 20 21  2  0
 21 22  1  0
 22 23  1  0
 15 11  1  0
 23 19  2  0
  1 24  1  0
  1 25  1  0
  1 26  1  0
  2 27  1  0
  3 28  1  0
  3 29  1  0
  5 30  1  0
  5 31  1  0
  5 32  1  0
  8 33  1  0
  9 34  1  0
  9 35  1  0
  9 36  1  0
 10 37  1  0
 10 38  1  0
 12 39  1  0
 13 40  1  0
 15 41  1  0
 16 42  1  0
 20 43  1  0
 21 44  1  0
 22 45  1  0
M  END
>  <Energy>  (122) 
85.282362692809414

>  <compound_id>  (122) 
10611

>  <target_id>  (122) 
1

>  <reference_id>  (122) 
96

>  <inspiration_ids>  (122) 
[35, 96]

>  <energy_score>  (122) 
11.313317565005406

>  <distance_score>  (122) 
4.086467036123553

>  <path>  (122) 
/opt/xchem-fragalysis-2/maxwin/BulkDock/SCRATCH/511017/C10611-P96/C10611-P96.minimised.mol

>  <scratch_subdir>  (122) 
/opt/xchem-fragalysis-2/maxwin/BulkDock/SCRATCH/511017/C10611-P96

>  <fragmenstein_runtime>  (122) 
7.890947580337524

>  <fragmenstein_outcome>  (122) 
too moved

>  <fragmenstein_mode>  (122) 
expansion

>  <fragmenstein_error>  (122) 


$$$$
C10612-P35
     RDKit          3D

 29 31  0  0  0  0  0  0  0  0999 V2000
   -9.0974  -25.2890   32.2700 N   0  0  0  0  0  0  0  0  0  0  0  0
  -10.5474  -25.1327   32.0159 C   0  0  0  0  0  0  0  0  0  0  0  0
  -10.9858  -25.5354   30.5995 C   0  0  0  0  0  0  0  0  0  0  0  0
  -10.7559  -26.9679   30.4548 C   0  0  0  0  0  0  0  0  0  0  0  0
  -11.6332  -28.0138   30.5835 C   0  0  0  0  0  0  0  0  0  0  0  0
  -10.8205  -29.0749   30.8555 N   0  0  0  0  0  0  0  0  0  0  0  0
   -9.5311  -28.6367   30.8158 C   0  0  0  0  0  0  0  0  0  0  0  0
   -9.4653  -27.3860   30.4723 N   0  0  0  0  0  0  0  0  0  0  0  0
  -10.9556  -23.7438   32.2372 C   0  0  0  0  0  0  0  0  0  0  0  0
  -11.3561  -22.8451   31.3657 N   0  0  0  0  0  0  0  0  0  0  0  0
  -11.3194  -21.6591   32.0422 N   0  0  0  0  0  0  0  0  0  0  0  0
  -10.9382  -21.9251   33.2758 C   0  0  0  0  0  0  0  0  0  0  0  0
  -10.6576  -20.8594   34.3492 C   0  0  0  0  0  0  0  0  0  0  0  0
  -10.2239  -21.1019   35.6628 C   0  0  0  0  0  0  0  0  0  0  0  0
  -10.0002  -19.8487   36.1845 C   0  0  0  0  0  0  0  0  0  0  0  0
  -10.3079  -18.9660   35.1922 N   0  0  0  0  0  0  0  0  0  0  0  0
  -10.7693  -19.5574   34.0966 N   0  0  0  0  0  0  0  0  0  0  0  0
  -10.7442  -23.2518   33.4835 O   0  0  0  0  0  0  0  0  0  0  0  0
   -8.6031  -24.9187   31.4627 H   0  0  0  0  0  0  0  0  0  0  0  0
   -8.8805  -26.2914   32.1788 H   0  0  0  0  0  0  0  0  0  0  0  0
  -11.0305  -25.7734   32.7513 H   0  0  0  0  0  0  0  0  0  0  0  0
  -12.0486  -25.3112   30.4392 H   0  0  0  0  0  0  0  0  0  0  0  0
  -10.4256  -24.9836   29.8334 H   0  0  0  0  0  0  0  0  0  0  0  0
  -12.7101  -28.0697   30.6466 H   0  0  0  0  0  0  0  0  0  0  0  0
  -11.1097  -30.0139   31.0964 H   0  0  0  0  0  0  0  0  0  0  0  0
   -8.6770  -29.2431   31.0764 H   0  0  0  0  0  0  0  0  0  0  0  0
  -10.0541  -22.0576   36.1379 H   0  0  0  0  0  0  0  0  0  0  0  0
   -9.6317  -19.5128   37.1422 H   0  0  0  0  0  0  0  0  0  0  0  0
  -10.2495  -17.9513   35.1900 H   0  0  0  0  0  0  0  0  0  0  0  0
  1  2  1  0
  2  3  1  0
  3  4  1  0
  4  5  2  0
  5  6  1  0
  6  7  1  0
  7  8  2  0
  2  9  1  0
  9 10  2  0
 10 11  1  0
 11 12  2  0
 12 13  1  0
 13 14  1  0
 14 15  2  0
 15 16  1  0
 16 17  1  0
 12 18  1  0
  8  4  1  0
 18  9  1  0
 17 13  2  0
  1 19  1  0
  1 20  1  0
  2 21  1  0
  3 22  1  0
  3 23  1  0
  5 24  1  0
  6 25  1  0
  7 26  1  0
 14 27  1  0
 15 28  1  0
 16 29  1  0
M  END
>  <Energy>  (123) 
84.989324435890666

>  <compound_id>  (123) 
10612

>  <target_id>  (123) 
1

>  <reference_id>  (123) 
35

>  <inspiration_ids>  (123) 
[35, 96]

>  <energy_score>  (123) 
-14.899489032681743

>  <distance_score>  (123) 
1.8034547346983076

>  <path>  (123) 
/opt/xchem-fragalysis-2/maxwin/BulkDock/SCRATCH/511017/C10612-P35/C10612-P35.minimised.mol

>  <scratch_subdir>  (123) 
/opt/xchem-fragalysis-2/maxwin/BulkDock/SCRATCH/511017/C10612-P35

>  <fragmenstein_runtime>  (123) 
3.1067051887512207

>  <fragmenstein_outcome>  (123) 
too moved

>  <fragmenstein_mode>  (123) 
expansion

>  <fragmenstein_error>  (123) 


$$$$
C10612-P96
     RDKit          3D

 29 31  0  0  0  0  0  0  0  0999 V2000
   -8.8462  -23.8508   30.4233 N   0  0  0  0  0  0  0  0  0  0  0  0
   -9.3072  -24.1904   31.7749 C   0  0  0  0  0  0  0  0  0  0  0  0
   -9.4725  -25.6871   31.9598 C   0  0  0  0  0  0  0  0  0  0  0  0
  -10.5298  -26.2814   31.0823 C   0  0  0  0  0  0  0  0  0  0  0  0
  -11.6033  -27.0823   31.4103 C   0  0  0  0  0  0  0  0  0  0  0  0
  -12.1680  -27.4265   30.2239 N   0  0  0  0  0  0  0  0  0  0  0  0
  -11.4668  -26.8065   29.2373 C   0  0  0  0  0  0  0  0  0  0  0  0
  -10.4623  -26.1213   29.7188 N   0  0  0  0  0  0  0  0  0  0  0  0
  -10.5761  -23.5189   32.0925 C   0  0  0  0  0  0  0  0  0  0  0  0
  -11.8085  -23.9602   31.9791 N   0  0  0  0  0  0  0  0  0  0  0  0
  -12.5828  -23.0678   32.6494 N   0  0  0  0  0  0  0  0  0  0  0  0
  -11.7908  -22.0729   32.9849 C   0  0  0  0  0  0  0  0  0  0  0  0
  -12.2808  -20.7608   33.5927 C   0  0  0  0  0  0  0  0  0  0  0  0
  -13.5899  -20.4548   33.9863 C   0  0  0  0  0  0  0  0  0  0  0  0
  -13.5149  -19.1533   34.4196 C   0  0  0  0  0  0  0  0  0  0  0  0
  -12.1997  -18.8064   34.3493 N   0  0  0  0  0  0  0  0  0  0  0  0
  -11.4745  -19.7096   33.7004 N   0  0  0  0  0  0  0  0  0  0  0  0
  -10.4870  -22.3024   32.6728 O   0  0  0  0  0  0  0  0  0  0  0  0
   -9.5928  -24.1699   29.7851 H   0  0  0  0  0  0  0  0  0  0  0  0
   -8.0975  -24.4920   30.1689 H   0  0  0  0  0  0  0  0  0  0  0  0
   -8.5346  -23.8463   32.4740 H   0  0  0  0  0  0  0  0  0  0  0  0
   -8.4956  -26.1142   31.7493 H   0  0  0  0  0  0  0  0  0  0  0  0
   -9.6559  -25.9287   33.0085 H   0  0  0  0  0  0  0  0  0  0  0  0
  -11.9776  -27.4608   32.3486 H   0  0  0  0  0  0  0  0  0  0  0  0
  -12.9857  -28.0045   30.0889 H   0  0  0  0  0  0  0  0  0  0  0  0
  -11.7463  -26.8726   28.1944 H   0  0  0  0  0  0  0  0  0  0  0  0
  -14.4659  -21.0851   33.9370 H   0  0  0  0  0  0  0  0  0  0  0  0
  -14.2639  -18.4653   34.7826 H   0  0  0  0  0  0  0  0  0  0  0  0
  -11.7517  -17.9366   34.6260 H   0  0  0  0  0  0  0  0  0  0  0  0
  1  2  1  0
  2  3  1  0
  3  4  1  0
  4  5  2  0
  5  6  1  0
  6  7  1  0
  7  8  2  0
  2  9  1  0
  9 10  2  0
 10 11  1  0
 11 12  2  0
 12 13  1  0
 13 14  1  0
 14 15  2  0
 15 16  1  0
 16 17  1  0
 12 18  1  0
  8  4  1  0
 18  9  1  0
 17 13  2  0
  1 19  1  0
  1 20  1  0
  2 21  1  0
  3 22  1  0
  3 23  1  0
  5 24  1  0
  6 25  1  0
  7 26  1  0
 14 27  1  0
 15 28  1  0
 16 29  1  0
M  END
>  <Energy>  (124) 
81.013806944992865

>  <compound_id>  (124) 
10612

>  <target_id>  (124) 
1

>  <reference_id>  (124) 
96

>  <inspiration_ids>  (124) 
[35, 96]

>  <energy_score>  (124) 
-18.875006523579856

>  <distance_score>  (124) 
2.3848282257417757

>  <path>  (124) 
/opt/xchem-fragalysis-2/maxwin/BulkDock/SCRATCH/511017/C10612-P96/C10612-P96.minimised.mol

>  <scratch_subdir>  (124) 
/opt/xchem-fragalysis-2/maxwin/BulkDock/SCRATCH/511017/C10612-P96

>  <fragmenstein_runtime>  (124) 
2.4247946739196777

>  <fragmenstein_outcome>  (124) 
too moved

>  <fragmenstein_mode>  (124) 
expansion

>  <fragmenstein_error>  (124) 


$$$$
C10613-P35
     RDKit          3D

 31 34  0  0  0  0  0  0  0  0999 V2000
   -8.9307  -27.8868   31.5939 C   0  0  0  0  0  0  0  0  0  0  0  0
   -9.8438  -27.9800   30.5956 C   0  0  0  0  0  0  0  0  0  0  0  0
  -10.5531  -26.8059   30.6195 N   0  0  0  0  0  0  0  0  0  0  0  0
  -11.3286  -26.3950   29.5122 C   0  0  0  0  0  0  0  0  0  0  0  0
  -11.1471  -26.9689   28.2300 C   0  0  0  0  0  0  0  0  0  0  0  0
  -11.4333  -26.2234   27.0890 C   0  0  0  0  0  0  0  0  0  0  0  0
  -11.7101  -24.8963   27.2919 C   0  0  0  0  0  0  0  0  0  0  0  0
  -11.9333  -24.4086   28.5629 C   0  0  0  0  0  0  0  0  0  0  0  0
  -12.0265  -25.2338   29.6394 C   0  0  0  0  0  0  0  0  0  0  0  0
  -11.9670  -22.9417   28.5385 C   0  0  0  0  0  0  0  0  0  0  0  0
  -11.5747  -22.6345   27.2028 O   0  0  0  0  0  0  0  0  0  0  0  0
  -11.8250  -23.7700   26.3499 C   0  0  0  0  0  0  0  0  0  0  0  0
  -10.1467  -26.1173   31.7844 C   0  0  0  0  0  0  0  0  0  0  0  0
  -10.4453  -24.6525   32.4424 C   0  0  0  0  0  0  0  0  0  0  0  0
  -11.1772  -23.5057   32.0485 C   0  0  0  0  0  0  0  0  0  0  0  0
  -11.0087  -22.5562   33.0287 C   0  0  0  0  0  0  0  0  0  0  0  0
  -10.2077  -23.1419   33.9457 N   0  0  0  0  0  0  0  0  0  0  0  0
   -9.8758  -24.3929   33.6315 N   0  0  0  0  0  0  0  0  0  0  0  0
   -9.2326  -26.8491   32.4069 N   0  0  0  0  0  0  0  0  0  0  0  0
   -8.1177  -28.5707   31.8029 H   0  0  0  0  0  0  0  0  0  0  0  0
   -9.9542  -28.7294   29.8347 H   0  0  0  0  0  0  0  0  0  0  0  0
  -10.6837  -27.9390   28.0846 H   0  0  0  0  0  0  0  0  0  0  0  0
  -11.2868  -26.6372   26.1001 H   0  0  0  0  0  0  0  0  0  0  0  0
  -12.4359  -24.9360   30.5871 H   0  0  0  0  0  0  0  0  0  0  0  0
  -11.2518  -22.4672   29.2090 H   0  0  0  0  0  0  0  0  0  0  0  0
  -12.9644  -22.5894   28.7461 H   0  0  0  0  0  0  0  0  0  0  0  0
  -12.8290  -23.7039   25.9217 H   0  0  0  0  0  0  0  0  0  0  0  0
  -11.0818  -23.8240   25.5549 H   0  0  0  0  0  0  0  0  0  0  0  0
  -11.7546  -23.2808   31.1801 H   0  0  0  0  0  0  0  0  0  0  0  0
  -11.3693  -21.5440   33.1417 H   0  0  0  0  0  0  0  0  0  0  0  0
   -9.8503  -22.7571   34.8140 H   0  0  0  0  0  0  0  0  0  0  0  0
  1  2  2  0
  2  3  1  0
  3  4  1  0
  4  5  2  0
  5  6  1  0
  6  7  2  0
  7  8  1  0
  8  9  2  0
  8 10  1  0
 10 11  1  0
 11 12  1  0
  3 13  1  0
 13 14  1  0
 14 15  1  0
 15 16  2  0
 16 17  1  0
 17 18  1  0
 13 19  2  0
 19  1  1  0
  9  4  1  0
 18 14  2  0
 12  7  1  0
  1 20  1  0
  2 21  1  0
  5 22  1  0
  6 23  1  0
  9 24  1  0
 10 25  1  0
 10 26  1  0
 12 27  1  0
 12 28  1  0
 15 29  1  0
 16 30  1  0
 17 31  1  0
M  END
>  <Energy>  (125) 
132.63999824492635

>  <compound_id>  (125) 
10613

>  <target_id>  (125) 
1

>  <reference_id>  (125) 
35

>  <inspiration_ids>  (125) 
[35, 96]

>  <energy_score>  (125) 
15.30466600767204

>  <distance_score>  (125) 
1.7164351284039716

>  <path>  (125) 
/opt/xchem-fragalysis-2/maxwin/BulkDock/SCRATCH/511017/C10613-P35/C10613-P35.minimised.mol

>  <scratch_subdir>  (125) 
/opt/xchem-fragalysis-2/maxwin/BulkDock/SCRATCH/511017/C10613-P35

>  <fragmenstein_runtime>  (125) 
2.027766227722168

>  <fragmenstein_outcome>  (125) 
too moved

>  <fragmenstein_mode>  (125) 
expansion

>  <fragmenstein_error>  (125) 


$$$$
C10613-P96
     RDKit          3D

 31 34  0  0  0  0  0  0  0  0999 V2000
  -11.6997  -28.4367   31.9156 C   0  0  0  0  0  0  0  0  0  0  0  0
  -12.0970  -28.1104   30.6432 C   0  0  0  0  0  0  0  0  0  0  0  0
  -11.5082  -26.8961   30.3825 N   0  0  0  0  0  0  0  0  0  0  0  0
  -11.4118  -26.2574   29.1370 C   0  0  0  0  0  0  0  0  0  0  0  0
  -12.3992  -26.4222   28.1495 C   0  0  0  0  0  0  0  0  0  0  0  0
  -12.4494  -25.5214   27.0864 C   0  0  0  0  0  0  0  0  0  0  0  0
  -11.5811  -24.4530   27.1283 C   0  0  0  0  0  0  0  0  0  0  0  0
  -10.5836  -24.3590   28.0794 C   0  0  0  0  0  0  0  0  0  0  0  0
  -10.3748  -25.3431   28.9863 C   0  0  0  0  0  0  0  0  0  0  0  0
  -10.0129  -23.0024   28.0853 C   0  0  0  0  0  0  0  0  0  0  0  0
  -11.0217  -22.2899   27.3552 O   0  0  0  0  0  0  0  0  0  0  0  0
  -11.5783  -23.1886   26.3706 C   0  0  0  0  0  0  0  0  0  0  0  0
  -10.9500  -26.4512   31.5717 C   0  0  0  0  0  0  0  0  0  0  0  0
  -10.5014  -24.9534   31.9450 C   0  0  0  0  0  0  0  0  0  0  0  0
  -11.1074  -23.7605   31.4758 C   0  0  0  0  0  0  0  0  0  0  0  0
  -10.5043  -22.7484   32.1821 C   0  0  0  0  0  0  0  0  0  0  0  0
   -9.5967  -23.3543   32.9970 N   0  0  0  0  0  0  0  0  0  0  0  0
   -9.5709  -24.6869   32.8723 N   0  0  0  0  0  0  0  0  0  0  0  0
  -10.9166  -27.4497   32.4380 N   0  0  0  0  0  0  0  0  0  0  0  0
  -11.9103  -29.3371   32.4765 H   0  0  0  0  0  0  0  0  0  0  0  0
  -12.6648  -28.6632   29.9106 H   0  0  0  0  0  0  0  0  0  0  0  0
  -13.1831  -27.1681   28.2367 H   0  0  0  0  0  0  0  0  0  0  0  0
  -13.2401  -25.5781   26.3465 H   0  0  0  0  0  0  0  0  0  0  0  0
   -9.5334  -25.2613   29.6676 H   0  0  0  0  0  0  0  0  0  0  0  0
   -9.0716  -22.9534   27.5531 H   0  0  0  0  0  0  0  0  0  0  0  0
   -9.9307  -22.5647   29.0790 H   0  0  0  0  0  0  0  0  0  0  0  0
  -12.5805  -22.8918   26.0694 H   0  0  0  0  0  0  0  0  0  0  0  0
  -10.9188  -23.2384   25.4992 H   0  0  0  0  0  0  0  0  0  0  0  0
  -11.9179  -23.6516   30.7694 H   0  0  0  0  0  0  0  0  0  0  0  0
  -10.6465  -21.6773   32.1888 H   0  0  0  0  0  0  0  0  0  0  0  0
   -8.9637  -22.9296   33.6660 H   0  0  0  0  0  0  0  0  0  0  0  0
  1  2  2  0
  2  3  1  0
  3  4  1  0
  4  5  2  0
  5  6  1  0
  6  7  2  0
  7  8  1  0
  8  9  2  0
  8 10  1  0
 10 11  1  0
 11 12  1  0
  3 13  1  0
 13 14  1  0
 14 15  1  0
 15 16  2  0
 16 17  1  0
 17 18  1  0
 13 19  2  0
 19  1  1  0
  9  4  1  0
 18 14  2  0
 12  7  1  0
  1 20  1  0
  2 21  1  0
  5 22  1  0
  6 23  1  0
  9 24  1  0
 10 25  1  0
 10 26  1  0
 12 27  1  0
 12 28  1  0
 15 29  1  0
 16 30  1  0
 17 31  1  0
M  END
>  <Energy>  (126) 
111.18285906282387

>  <compound_id>  (126) 
10613

>  <target_id>  (126) 
1

>  <reference_id>  (126) 
96

>  <inspiration_ids>  (126) 
[35, 96]

>  <energy_score>  (126) 
-6.1524731744289625

>  <distance_score>  (126) 
1.668777964856348

>  <path>  (126) 
/opt/xchem-fragalysis-2/maxwin/BulkDock/SCRATCH/511017/C10613-P96/C10613-P96.minimised.mol

>  <scratch_subdir>  (126) 
/opt/xchem-fragalysis-2/maxwin/BulkDock/SCRATCH/511017/C10613-P96

>  <fragmenstein_runtime>  (126) 
2.0646326541900635

>  <fragmenstein_outcome>  (126) 
too moved

>  <fragmenstein_mode>  (126) 
expansion

>  <fragmenstein_error>  (126) 


$$$$
C10615-P35
     RDKit          3D

 31 34  0  0  0  0  0  0  0  0999 V2000
   -8.8110  -28.3425   31.2361 C   0  0  0  0  0  0  0  0  0  0  0  0
   -9.6281  -28.3923   30.1377 C   0  0  0  0  0  0  0  0  0  0  0  0
  -10.7419  -27.7299   30.4909 N   0  0  0  0  0  0  0  0  0  0  0  0
  -10.3800  -26.9940   31.5736 C   0  0  0  0  0  0  0  0  0  0  0  0
  -11.1959  -25.7883   31.9088 C   0  0  0  0  0  0  0  0  0  0  0  0
  -12.3796  -25.6689   31.2831 N   0  0  0  0  0  0  0  0  0  0  0  0
  -12.8209  -24.4535   31.7540 O   0  0  0  0  0  0  0  0  0  0  0  0
  -11.7297  -23.8866   32.3579 C   0  0  0  0  0  0  0  0  0  0  0  0
  -11.5797  -22.4077   32.0744 C   0  0  0  0  0  0  0  0  0  0  0  0
  -11.5613  -22.3791   30.4330 C   0  0  0  0  0  0  0  0  0  0  0  0
  -11.2054  -23.4959   29.5780 C   0  0  0  0  0  0  0  0  0  0  0  0
  -11.3364  -23.0780   28.2886 C   0  0  0  0  0  0  0  0  0  0  0  0
  -11.6457  -21.7743   28.4139 N   0  0  0  0  0  0  0  0  0  0  0  0
  -11.8563  -21.3318   29.6722 N   0  0  0  0  0  0  0  0  0  0  0  0
  -12.6865  -21.7086   32.8940 C   0  0  0  0  0  0  0  0  0  0  0  0
  -11.6228  -21.0451   33.7775 C   0  0  0  0  0  0  0  0  0  0  0  0
  -10.5367  -21.5863   32.8403 C   0  0  0  0  0  0  0  0  0  0  0  0
  -10.7541  -24.7163   32.6222 N   0  0  0  0  0  0  0  0  0  0  0  0
   -9.2644  -27.4021   32.1078 N   0  0  0  0  0  0  0  0  0  0  0  0
   -7.8762  -28.8592   31.4158 H   0  0  0  0  0  0  0  0  0  0  0  0
   -9.5247  -28.8219   29.1684 H   0  0  0  0  0  0  0  0  0  0  0  0
  -11.5582  -27.5450   29.9244 H   0  0  0  0  0  0  0  0  0  0  0  0
  -10.8235  -24.4659   29.8370 H   0  0  0  0  0  0  0  0  0  0  0  0
  -11.1643  -23.5499   27.3327 H   0  0  0  0  0  0  0  0  0  0  0  0
  -11.6986  -21.0978   27.6659 H   0  0  0  0  0  0  0  0  0  0  0  0
  -13.3602  -21.0888   32.3270 H   0  0  0  0  0  0  0  0  0  0  0  0
  -13.3517  -22.3593   33.4770 H   0  0  0  0  0  0  0  0  0  0  0  0
  -11.5742  -21.4588   34.7909 H   0  0  0  0  0  0  0  0  0  0  0  0
  -11.6810  -19.9562   33.8452 H   0  0  0  0  0  0  0  0  0  0  0  0
  -10.0778  -20.7877   32.2605 H   0  0  0  0  0  0  0  0  0  0  0  0
   -9.7510  -22.1526   33.3494 H   0  0  0  0  0  0  0  0  0  0  0  0
  1  2  2  0
  2  3  1  0
  3  4  1  0
  4  5  1  0
  5  6  2  0
  6  7  1  0
  7  8  1  0
  8  9  1  0
  9 10  1  0
 10 11  1  0
 11 12  2  0
 12 13  1  0
 13 14  1  0
  9 15  1  0
 15 16  1  0
 16 17  1  0
  8 18  2  0
  4 19  2  0
 19  1  1  0
 18  5  1  0
 17  9  1  0
 14 10  2  0
  1 20  1  0
  2 21  1  0
  3 22  1  0
 11 23  1  0
 12 24  1  0
 13 25  1  0
 15 26  1  0
 15 27  1  0
 16 28  1  0
 16 29  1  0
 17 30  1  0
 17 31  1  0
M  END
>  <Energy>  (127) 
104.49612215535431

>  <compound_id>  (127) 
10615

>  <target_id>  (127) 
1

>  <reference_id>  (127) 
35

>  <inspiration_ids>  (127) 
[35, 96]

>  <energy_score>  (127) 
3.6336639052393025

>  <distance_score>  (127) 
1.5916825970691628

>  <path>  (127) 
/opt/xchem-fragalysis-2/maxwin/BulkDock/SCRATCH/511017/C10615-P35/C10615-P35.minimised.mol

>  <scratch_subdir>  (127) 
/opt/xchem-fragalysis-2/maxwin/BulkDock/SCRATCH/511017/C10615-P35

>  <fragmenstein_runtime>  (127) 
3.3889684677124023

>  <fragmenstein_outcome>  (127) 
too moved

>  <fragmenstein_mode>  (127) 
expansion

>  <fragmenstein_error>  (127) 


$$$$
C10615-P96
     RDKit          3D

 31 34  0  0  0  0  0  0  0  0999 V2000
  -11.4286  -28.8947   32.2667 C   0  0  0  0  0  0  0  0  0  0  0  0
  -12.2273  -29.1633   31.1811 C   0  0  0  0  0  0  0  0  0  0  0  0
  -12.5323  -27.9391   30.6589 N   0  0  0  0  0  0  0  0  0  0  0  0
  -11.9111  -27.0065   31.4333 C   0  0  0  0  0  0  0  0  0  0  0  0
  -12.1935  -25.5025   31.3770 C   0  0  0  0  0  0  0  0  0  0  0  0
  -13.2857  -24.9977   30.7950 N   0  0  0  0  0  0  0  0  0  0  0  0
  -13.2249  -23.6515   31.1466 O   0  0  0  0  0  0  0  0  0  0  0  0
  -12.0416  -23.4866   31.7997 C   0  0  0  0  0  0  0  0  0  0  0  0
  -11.2495  -22.1780   31.6976 C   0  0  0  0  0  0  0  0  0  0  0  0
  -10.8081  -22.1888   30.1827 C   0  0  0  0  0  0  0  0  0  0  0  0
  -10.0232  -23.2144   29.5801 C   0  0  0  0  0  0  0  0  0  0  0  0
  -10.2636  -23.0876   28.2337 C   0  0  0  0  0  0  0  0  0  0  0  0
  -11.1029  -22.0201   28.0947 N   0  0  0  0  0  0  0  0  0  0  0  0
  -11.4458  -21.4529   29.2679 N   0  0  0  0  0  0  0  0  0  0  0  0
  -10.2681  -21.9531   32.8652 C   0  0  0  0  0  0  0  0  0  0  0  0
  -11.4460  -21.2589   33.6076 C   0  0  0  0  0  0  0  0  0  0  0  0
  -11.9767  -20.9178   32.2086 C   0  0  0  0  0  0  0  0  0  0  0  0
  -11.4142  -24.6065   32.0363 N   0  0  0  0  0  0  0  0  0  0  0  0
  -11.1363  -27.5692   32.3305 N   0  0  0  0  0  0  0  0  0  0  0  0
  -11.0215  -29.5713   33.0028 H   0  0  0  0  0  0  0  0  0  0  0  0
  -12.6413  -30.0805   30.7856 H   0  0  0  0  0  0  0  0  0  0  0  0
  -13.1763  -27.7359   29.9064 H   0  0  0  0  0  0  0  0  0  0  0  0
   -9.4508  -23.9914   30.0707 H   0  0  0  0  0  0  0  0  0  0  0  0
   -9.9392  -23.6566   27.3765 H   0  0  0  0  0  0  0  0  0  0  0  0
  -11.5101  -21.6383   27.2399 H   0  0  0  0  0  0  0  0  0  0  0  0
   -9.8617  -22.8382   33.3630 H   0  0  0  0  0  0  0  0  0  0  0  0
   -9.4416  -21.2806   32.6327 H   0  0  0  0  0  0  0  0  0  0  0  0
  -11.2363  -20.3950   34.2340 H   0  0  0  0  0  0  0  0  0  0  0  0
  -12.0860  -21.9459   34.1737 H   0  0  0  0  0  0  0  0  0  0  0  0
  -11.5528  -19.9871   31.8196 H   0  0  0  0  0  0  0  0  0  0  0  0
  -13.0650  -20.8912   32.1094 H   0  0  0  0  0  0  0  0  0  0  0  0
  1  2  2  0
  2  3  1  0
  3  4  1  0
  4  5  1  0
  5  6  2  0
  6  7  1  0
  7  8  1  0
  8  9  1  0
  9 10  1  0
 10 11  1  0
 11 12  2  0
 12 13  1  0
 13 14  1  0
  9 15  1  0
 15 16  1  0
 16 17  1  0
  8 18  2  0
  4 19  2  0
 19  1  1  0
 18  5  1  0
 17  9  1  0
 14 10  2  0
  1 20  1  0
  2 21  1  0
  3 22  1  0
 11 23  1  0
 12 24  1  0
 13 25  1  0
 15 26  1  0
 15 27  1  0
 16 28  1  0
 16 29  1  0
 17 30  1  0
 17 31  1  0
M  END
>  <Energy>  (128) 
78.038772825800834

>  <compound_id>  (128) 
10615

>  <target_id>  (128) 
1

>  <reference_id>  (128) 
96

>  <inspiration_ids>  (128) 
[35, 96]

>  <energy_score>  (128) 
-22.823685424314817

>  <distance_score>  (128) 
2.327427022030324

>  <path>  (128) 
/opt/xchem-fragalysis-2/maxwin/BulkDock/SCRATCH/511017/C10615-P96/C10615-P96.minimised.mol

>  <scratch_subdir>  (128) 
/opt/xchem-fragalysis-2/maxwin/BulkDock/SCRATCH/511017/C10615-P96

>  <fragmenstein_runtime>  (128) 
5.443011999130249

>  <fragmenstein_outcome>  (128) 
too moved

>  <fragmenstein_mode>  (128) 
expansion

>  <fragmenstein_error>  (128) 


$$$$
C10616-P35
     RDKit          3D

 48 49  0  0  0  0  0  0  0  0999 V2000
  -17.0271  -20.6726   33.9176 C   0  0  0  0  0  0  0  0  0  0  0  0
  -15.5232  -20.4761   33.7716 C   0  0  0  0  0  0  0  0  0  0  0  0
  -14.8130  -21.7147   33.2393 C   0  0  0  0  0  0  0  0  0  0  0  0
  -15.1768  -22.0949   31.8047 C   0  0  0  0  0  0  0  0  0  0  0  0
  -14.0759  -22.5348   30.9586 N   0  0  0  0  0  0  0  0  0  0  0  0
  -13.8871  -23.8499   30.1486 C   0  0  0  0  0  0  0  0  0  0  0  0
  -14.5520  -24.8128   30.0991 O   0  0  0  0  0  0  0  0  0  0  0  0
  -12.6867  -23.6412   29.3027 C   0  0  0  0  0  0  0  0  0  0  0  0
  -11.9896  -22.4346   29.3961 N   0  0  0  0  0  0  0  0  0  0  0  0
  -11.0723  -22.4946   28.4727 C   0  0  0  0  0  0  0  0  0  0  0  0
  -11.0750  -23.6821   27.8198 N   0  0  0  0  0  0  0  0  0  0  0  0
  -12.1205  -24.4211   28.2986 C   0  0  0  0  0  0  0  0  0  0  0  0
  -12.4467  -25.7241   27.6927 C   0  0  0  0  0  0  0  0  0  0  0  0
  -13.3896  -21.7762   33.4421 N   0  0  0  0  0  0  0  0  0  0  0  0
  -12.3778  -22.8571   33.0594 C   0  0  0  0  0  0  0  0  0  0  0  0
  -12.5170  -23.8363   32.4513 O   0  0  0  0  0  0  0  0  0  0  0  0
  -10.9404  -22.5389   33.5611 C   0  0  0  0  0  0  0  0  0  0  0  0
  -10.8740  -22.2889   35.0787 C   0  0  0  0  0  0  0  0  0  0  0  0
  -10.4488  -21.2689   32.8683 C   0  0  0  0  0  0  0  0  0  0  0  0
  -10.1495  -23.7923   33.1216 C   0  0  0  0  0  0  0  0  0  0  0  0
  -10.0979  -24.3576   31.8128 C   0  0  0  0  0  0  0  0  0  0  0  0
   -9.5799  -25.6140   31.9354 C   0  0  0  0  0  0  0  0  0  0  0  0
   -9.3614  -25.7664   33.2624 N   0  0  0  0  0  0  0  0  0  0  0  0
   -9.6560  -24.6736   33.9955 N   0  0  0  0  0  0  0  0  0  0  0  0
  -17.2531  -21.4957   34.6024 H   0  0  0  0  0  0  0  0  0  0  0  0
  -17.4869  -19.7638   34.3190 H   0  0  0  0  0  0  0  0  0  0  0  0
  -17.4976  -20.8880   32.9534 H   0  0  0  0  0  0  0  0  0  0  0  0
  -15.1133  -20.1854   34.7409 H   0  0  0  0  0  0  0  0  0  0  0  0
  -15.3590  -19.6384   33.1015 H   0  0  0  0  0  0  0  0  0  0  0  0
  -15.1968  -22.5893   33.7544 H   0  0  0  0  0  0  0  0  0  0  0  0
  -15.6157  -21.2181   31.3182 H   0  0  0  0  0  0  0  0  0  0  0  0
  -15.9154  -22.9019   31.8692 H   0  0  0  0  0  0  0  0  0  0  0  0
  -13.2675  -21.9394   30.8300 H   0  0  0  0  0  0  0  0  0  0  0  0
  -10.3833  -21.7046   28.2385 H   0  0  0  0  0  0  0  0  0  0  0  0
  -10.4828  -23.9267   27.0402 H   0  0  0  0  0  0  0  0  0  0  0  0
  -11.5590  -26.2071   27.2708 H   0  0  0  0  0  0  0  0  0  0  0  0
  -12.8691  -26.4042   28.4389 H   0  0  0  0  0  0  0  0  0  0  0  0
  -13.1815  -25.5981   26.8912 H   0  0  0  0  0  0  0  0  0  0  0  0
  -12.9470  -21.1000   34.0466 H   0  0  0  0  0  0  0  0  0  0  0  0
  -11.3234  -21.3282   35.3530 H   0  0  0  0  0  0  0  0  0  0  0  0
  -11.4003  -23.0463   35.6603 H   0  0  0  0  0  0  0  0  0  0  0  0
   -9.8368  -22.2657   35.4307 H   0  0  0  0  0  0  0  0  0  0  0  0
   -9.3975  -21.0814   33.1056 H   0  0  0  0  0  0  0  0  0  0  0  0
  -10.5700  -21.3306   31.7831 H   0  0  0  0  0  0  0  0  0  0  0  0
  -11.0092  -20.3872   33.1964 H   0  0  0  0  0  0  0  0  0  0  0  0
  -10.5405  -23.9620   30.9190 H   0  0  0  0  0  0  0  0  0  0  0  0
   -9.4062  -26.4104   31.2288 H   0  0  0  0  0  0  0  0  0  0  0  0
   -8.9690  -26.5731   33.7364 H   0  0  0  0  0  0  0  0  0  0  0  0
  1  2  1  0
  2  3  1  0
  3  4  1  0
  4  5  1  0
  5  6  1  0
  6  7  2  0
  6  8  1  0
  8  9  1  0
  9 10  2  0
 10 11  1  0
 11 12  1  0
 12 13  1  0
  3 14  1  0
 14 15  1  0
 15 16  2  0
 15 17  1  0
 17 18  1  0
 17 19  1  0
 17 20  1  0
 20 21  1  0
 21 22  2  0
 22 23  1  0
 23 24  1  0
 12  8  2  0
 24 20  2  0
  1 25  1  0
  1 26  1  0
  1 27  1  0
  2 28  1  0
  2 29  1  0
  3 30  1  0
  4 31  1  0
  4 32  1  0
  5 33  1  0
 10 34  1  0
 11 35  1  0
 13 36  1  0
 13 37  1  0
 13 38  1  0
 14 39  1  0
 18 40  1  0
 18 41  1  0
 18 42  1  0
 19 43  1  0
 19 44  1  0
 19 45  1  0
 21 46  1  0
 22 47  1  0
 23 48  1  0
M  END
>  <Energy>  (129) 
110.09171738028698

>  <compound_id>  (129) 
10616

>  <target_id>  (129) 
1

>  <reference_id>  (129) 
35

>  <inspiration_ids>  (129) 
[35, 96]

>  <energy_score>  (129) 
-16.703605699317905

>  <distance_score>  (129) 
2.287575281005593

>  <path>  (129) 
/opt/xchem-fragalysis-2/maxwin/BulkDock/SCRATCH/511017/C10616-P35/C10616-P35.minimised.mol

>  <scratch_subdir>  (129) 
/opt/xchem-fragalysis-2/maxwin/BulkDock/SCRATCH/511017/C10616-P35

>  <fragmenstein_runtime>  (129) 
13.364551544189453

>  <fragmenstein_outcome>  (129) 
too moved

>  <fragmenstein_mode>  (129) 
expansion

>  <fragmenstein_error>  (129) 


$$$$
C10616-P96
     RDKit          3D

 48 49  0  0  0  0  0  0  0  0999 V2000
  -14.8994  -19.1146   34.1086 C   0  0  0  0  0  0  0  0  0  0  0  0
  -13.5376  -19.7788   33.9986 C   0  0  0  0  0  0  0  0  0  0  0  0
  -13.5796  -21.2951   33.8551 C   0  0  0  0  0  0  0  0  0  0  0  0
  -14.3508  -21.8086   32.5906 C   0  0  0  0  0  0  0  0  0  0  0  0
  -13.5039  -22.0191   31.4141 N   0  0  0  0  0  0  0  0  0  0  0  0
  -13.2967  -23.2871   30.5296 C   0  0  0  0  0  0  0  0  0  0  0  0
  -13.8296  -24.3305   30.5615 O   0  0  0  0  0  0  0  0  0  0  0  0
  -12.2532  -22.9643   29.5331 C   0  0  0  0  0  0  0  0  0  0  0  0
  -11.5657  -21.7659   29.6421 N   0  0  0  0  0  0  0  0  0  0  0  0
  -10.7243  -21.7571   28.6452 C   0  0  0  0  0  0  0  0  0  0  0  0
  -10.8158  -22.8782   27.8849 N   0  0  0  0  0  0  0  0  0  0  0  0
  -11.8217  -23.6530   28.3992 C   0  0  0  0  0  0  0  0  0  0  0  0
  -12.2287  -24.9034   27.7203 C   0  0  0  0  0  0  0  0  0  0  0  0
  -12.2331  -21.7957   33.7706 N   0  0  0  0  0  0  0  0  0  0  0  0
  -11.6985  -23.1180   33.2232 C   0  0  0  0  0  0  0  0  0  0  0  0
  -12.2632  -24.0486   32.8229 O   0  0  0  0  0  0  0  0  0  0  0  0
  -10.1359  -23.1228   33.1138 C   0  0  0  0  0  0  0  0  0  0  0  0
   -9.3580  -23.4701   34.3796 C   0  0  0  0  0  0  0  0  0  0  0  0
   -9.7013  -21.7401   32.6134 C   0  0  0  0  0  0  0  0  0  0  0  0
   -9.7433  -24.0973   31.9921 C   0  0  0  0  0  0  0  0  0  0  0  0
  -10.4594  -25.1691   31.3969 C   0  0  0  0  0  0  0  0  0  0  0  0
   -9.8202  -25.4274   30.2226 C   0  0  0  0  0  0  0  0  0  0  0  0
   -8.7154  -24.6578   30.2397 N   0  0  0  0  0  0  0  0  0  0  0  0
   -8.5885  -23.9084   31.3371 N   0  0  0  0  0  0  0  0  0  0  0  0
  -14.7796  -18.0601   34.3777 H   0  0  0  0  0  0  0  0  0  0  0  0
  -15.4444  -19.1464   33.1613 H   0  0  0  0  0  0  0  0  0  0  0  0
  -15.5115  -19.5936   34.8789 H   0  0  0  0  0  0  0  0  0  0  0  0
  -12.9481  -19.5167   34.8855 H   0  0  0  0  0  0  0  0  0  0  0  0
  -12.9847  -19.3723   33.1549 H   0  0  0  0  0  0  0  0  0  0  0  0
  -14.0523  -21.7216   34.7362 H   0  0  0  0  0  0  0  0  0  0  0  0
  -15.1580  -21.1291   32.3149 H   0  0  0  0  0  0  0  0  0  0  0  0
  -14.8034  -22.7803   32.8197 H   0  0  0  0  0  0  0  0  0  0  0  0
  -12.8143  -21.3161   31.1663 H   0  0  0  0  0  0  0  0  0  0  0  0
  -10.0560  -20.9436   28.4157 H   0  0  0  0  0  0  0  0  0  0  0  0
  -10.3124  -23.0442   27.0255 H   0  0  0  0  0  0  0  0  0  0  0  0
  -11.3935  -25.3514   27.1722 H   0  0  0  0  0  0  0  0  0  0  0  0
  -12.5889  -25.6415   28.4431 H   0  0  0  0  0  0  0  0  0  0  0  0
  -13.0354  -24.7015   27.0086 H   0  0  0  0  0  0  0  0  0  0  0  0
  -11.4657  -21.2373   34.1082 H   0  0  0  0  0  0  0  0  0  0  0  0
   -9.2171  -24.5491   34.4918 H   0  0  0  0  0  0  0  0  0  0  0  0
   -9.8367  -23.0733   35.2739 H   0  0  0  0  0  0  0  0  0  0  0  0
   -8.3349  -23.0822   34.3463 H   0  0  0  0  0  0  0  0  0  0  0  0
   -8.6123  -21.7042   32.6289 H   0  0  0  0  0  0  0  0  0  0  0  0
  -10.0783  -21.5561   31.6080 H   0  0  0  0  0  0  0  0  0  0  0  0
  -10.0333  -20.8814   33.1802 H   0  0  0  0  0  0  0  0  0  0  0  0
  -11.4060  -25.6211   31.6517 H   0  0  0  0  0  0  0  0  0  0  0  0
  -10.0704  -26.0727   29.3980 H   0  0  0  0  0  0  0  0  0  0  0  0
   -7.9909  -24.6051   29.5350 H   0  0  0  0  0  0  0  0  0  0  0  0
  1  2  1  0
  2  3  1  0
  3  4  1  0
  4  5  1  0
  5  6  1  0
  6  7  2  0
  6  8  1  0
  8  9  1  0
  9 10  2  0
 10 11  1  0
 11 12  1  0
 12 13  1  0
  3 14  1  0
 14 15  1  0
 15 16  2  0
 15 17  1  0
 17 18  1  0
 17 19  1  0
 17 20  1  0
 20 21  1  0
 21 22  2  0
 22 23  1  0
 23 24  1  0
 12  8  2  0
 24 20  2  0
  1 25  1  0
  1 26  1  0
  1 27  1  0
  2 28  1  0
  2 29  1  0
  3 30  1  0
  4 31  1  0
  4 32  1  0
  5 33  1  0
 10 34  1  0
 11 35  1  0
 13 36  1  0
 13 37  1  0
 13 38  1  0
 14 39  1  0
 18 40  1  0
 18 41  1  0
 18 42  1  0
 19 43  1  0
 19 44  1  0
 19 45  1  0
 21 46  1  0
 22 47  1  0
 23 48  1  0
M  END
>  <Energy>  (130) 
113.68863341360925

>  <compound_id>  (130) 
10616

>  <target_id>  (130) 
1

>  <reference_id>  (130) 
96

>  <inspiration_ids>  (130) 
[35, 96]

>  <energy_score>  (130) 
-13.106689665995702

>  <distance_score>  (130) 
2.377318797693702

>  <path>  (130) 
/opt/xchem-fragalysis-2/maxwin/BulkDock/SCRATCH/511017/C10616-P96/C10616-P96.minimised.mol

>  <scratch_subdir>  (130) 
/opt/xchem-fragalysis-2/maxwin/BulkDock/SCRATCH/511017/C10616-P96

>  <fragmenstein_runtime>  (130) 
9.507606267929077

>  <fragmenstein_outcome>  (130) 
too moved

>  <fragmenstein_mode>  (130) 
expansion

>  <fragmenstein_error>  (130) 


$$$$
C10617-P35
     RDKit          3D

 45 46  0  0  0  0  0  0  0  0999 V2000
  -12.1309  -18.4899   28.8214 C   0  0  0  0  0  0  0  0  0  0  0  0
  -12.1736  -20.4369   29.0059 C   0  0  0  0  0  0  0  0  0  0  0  0
  -11.1346  -21.3577   29.7656 C   0  0  0  0  0  0  0  0  0  0  0  0
  -11.5287  -22.6689   30.5204 N   0  0  0  0  0  0  0  0  0  0  0  0
  -11.7542  -21.7118   31.6297 C   0  0  0  0  0  0  0  0  0  0  0  0
  -12.1277  -22.5165   32.8872 C   0  0  0  0  0  0  0  0  0  0  0  0
  -13.4227  -23.1168   32.7579 N   0  0  0  0  0  0  0  0  0  0  0  0
  -14.7179  -22.5344   32.6665 C   0  0  0  0  0  0  0  0  0  0  0  0
  -15.0712  -21.3919   32.7525 O   0  0  0  0  0  0  0  0  0  0  0  0
  -15.7039  -23.6248   32.4845 C   0  0  0  0  0  0  0  0  0  0  0  0
  -17.1059  -23.5631   32.6630 C   0  0  0  0  0  0  0  0  0  0  0  0
  -17.5633  -24.8245   32.3687 C   0  0  0  0  0  0  0  0  0  0  0  0
  -16.4638  -25.5500   32.0303 N   0  0  0  0  0  0  0  0  0  0  0  0
  -15.3216  -24.8728   32.1312 N   0  0  0  0  0  0  0  0  0  0  0  0
  -12.4404  -23.4163   29.7478 C   0  0  0  0  0  0  0  0  0  0  0  0
  -13.6385  -23.4033   29.7262 O   0  0  0  0  0  0  0  0  0  0  0  0
  -11.7170  -24.4050   28.9441 C   0  0  0  0  0  0  0  0  0  0  0  0
  -12.3047  -25.3332   28.1089 C   0  0  0  0  0  0  0  0  0  0  0  0
  -11.3708  -26.3139   27.9821 N   0  0  0  0  0  0  0  0  0  0  0  0
  -11.5806  -27.5978   27.3703 C   0  0  0  0  0  0  0  0  0  0  0  0
  -12.3552  -28.5457   28.2700 C   0  0  0  0  0  0  0  0  0  0  0  0
  -10.2455  -25.9269   28.6348 C   0  0  0  0  0  0  0  0  0  0  0  0
  -10.3841  -24.7300   29.1449 N   0  0  0  0  0  0  0  0  0  0  0  0
  -11.1631  -18.2122   29.2114 H   0  0  0  0  0  0  0  0  0  0  0  0
  -11.6964  -17.9182   28.0620 H   0  0  0  0  0  0  0  0  0  0  0  0
  -12.6117  -17.7420   29.3522 H   0  0  0  0  0  0  0  0  0  0  0  0
  -13.0628  -20.6392   29.4916 H   0  0  0  0  0  0  0  0  0  0  0  0
  -12.1874  -20.9492   28.0451 H   0  0  0  0  0  0  0  0  0  0  0  0
  -10.5738  -21.7785   28.9144 H   0  0  0  0  0  0  0  0  0  0  0  0
  -10.3764  -20.8014   30.2759 H   0  0  0  0  0  0  0  0  0  0  0  0
  -10.8718  -21.1547   31.9733 H   0  0  0  0  0  0  0  0  0  0  0  0
  -12.6441  -21.1469   31.4697 H   0  0  0  0  0  0  0  0  0  0  0  0
  -11.3975  -23.3067   33.0892 H   0  0  0  0  0  0  0  0  0  0  0  0
  -12.1726  -21.8412   33.7487 H   0  0  0  0  0  0  0  0  0  0  0  0
  -13.4932  -24.1200   32.5494 H   0  0  0  0  0  0  0  0  0  0  0  0
  -17.6832  -22.6982   32.9542 H   0  0  0  0  0  0  0  0  0  0  0  0
  -18.5551  -25.2501   32.3525 H   0  0  0  0  0  0  0  0  0  0  0  0
  -16.4166  -26.5166   31.7314 H   0  0  0  0  0  0  0  0  0  0  0  0
  -13.3234  -25.4349   27.7624 H   0  0  0  0  0  0  0  0  0  0  0  0
  -12.1263  -27.4220   26.4386 H   0  0  0  0  0  0  0  0  0  0  0  0
  -10.6042  -28.0165   27.1083 H   0  0  0  0  0  0  0  0  0  0  0  0
  -12.4929  -29.5133   27.7792 H   0  0  0  0  0  0  0  0  0  0  0  0
  -13.3465  -28.1453   28.5079 H   0  0  0  0  0  0  0  0  0  0  0  0
  -11.8288  -28.7097   29.2161 H   0  0  0  0  0  0  0  0  0  0  0  0
   -9.3651  -26.5496   28.7136 H   0  0  0  0  0  0  0  0  0  0  0  0
  1  2  1  0
  2  3  1  0
  3  4  1  0
  4  5  1  0
  5  6  1  0
  6  7  1  0
  7  8  1  0
  8  9  2  0
  8 10  1  0
 10 11  1  0
 11 12  2  0
 12 13  1  0
 13 14  1  0
  4 15  1  0
 15 16  2  0
 15 17  1  0
 17 18  2  0
 18 19  1  0
 19 20  1  0
 20 21  1  0
 19 22  1  0
 22 23  2  0
 14 10  2  0
 23 17  1  0
  1 24  1  0
  1 25  1  0
  1 26  1  0
  2 27  1  0
  2 28  1  0
  3 29  1  0
  3 30  1  0
  5 31  1  0
  5 32  1  0
  6 33  1  0
  6 34  1  0
  7 35  1  0
 11 36  1  0
 12 37  1  0
 13 38  1  0
 18 39  1  0
 20 40  1  0
 20 41  1  0
 21 42  1  0
 21 43  1  0
 21 44  1  0
 22 45  1  0
M  END
>  <Energy>  (131) 
234.07511588621267

>  <compound_id>  (131) 
10617

>  <target_id>  (131) 
1

>  <reference_id>  (131) 
35

>  <inspiration_ids>  (131) 
[35, 96]

>  <energy_score>  (131) 
140.24197610998493

>  <distance_score>  (131) 
4.945065158144598

>  <path>  (131) 
/opt/xchem-fragalysis-2/maxwin/BulkDock/SCRATCH/511017/C10617-P35/C10617-P35.minimised.mol

>  <scratch_subdir>  (131) 
/opt/xchem-fragalysis-2/maxwin/BulkDock/SCRATCH/511017/C10617-P35

>  <fragmenstein_runtime>  (131) 
17.26607632637024

>  <fragmenstein_outcome>  (131) 
too moved

>  <fragmenstein_mode>  (131) 
expansion

>  <fragmenstein_error>  (131) 


$$$$
C10617-P96
     RDKit          3D

 45 46  0  0  0  0  0  0  0  0999 V2000
  -18.6967  -21.8523   34.4773 C   0  0  0  0  0  0  0  0  0  0  0  0
  -17.4850  -22.7684   34.5677 C   0  0  0  0  0  0  0  0  0  0  0  0
  -17.2648  -23.5337   33.2481 C   0  0  0  0  0  0  0  0  0  0  0  0
  -16.0774  -24.5101   33.2681 N   0  0  0  0  0  0  0  0  0  0  0  0
  -17.1779  -25.5020   33.6209 C   0  0  0  0  0  0  0  0  0  0  0  0
  -16.5060  -26.9186   33.7924 C   0  0  0  0  0  0  0  0  0  0  0  0
  -15.4862  -27.1653   32.7886 N   0  0  0  0  0  0  0  0  0  0  0  0
  -14.2785  -27.9283   32.8456 C   0  0  0  0  0  0  0  0  0  0  0  0
  -13.8367  -28.6258   33.7090 O   0  0  0  0  0  0  0  0  0  0  0  0
  -13.4598  -27.6714   31.6212 C   0  0  0  0  0  0  0  0  0  0  0  0
  -13.8898  -27.5920   30.2674 C   0  0  0  0  0  0  0  0  0  0  0  0
  -12.8035  -27.1433   29.5564 C   0  0  0  0  0  0  0  0  0  0  0  0
  -11.8083  -26.9823   30.4669 N   0  0  0  0  0  0  0  0  0  0  0  0
  -12.1587  -27.3200   31.7150 N   0  0  0  0  0  0  0  0  0  0  0  0
  -15.3068  -24.3641   32.0852 C   0  0  0  0  0  0  0  0  0  0  0  0
  -15.3891  -24.9286   31.0259 O   0  0  0  0  0  0  0  0  0  0  0  0
  -14.1765  -23.4254   32.2732 C   0  0  0  0  0  0  0  0  0  0  0  0
  -13.0100  -23.4352   31.5206 C   0  0  0  0  0  0  0  0  0  0  0  0
  -12.1645  -22.5704   32.1495 N   0  0  0  0  0  0  0  0  0  0  0  0
  -10.7760  -22.3359   31.8153 C   0  0  0  0  0  0  0  0  0  0  0  0
   -9.8347  -23.2793   32.5438 C   0  0  0  0  0  0  0  0  0  0  0  0
  -12.8487  -21.9985   33.1819 C   0  0  0  0  0  0  0  0  0  0  0  0
  -14.0701  -22.4801   33.2771 N   0  0  0  0  0  0  0  0  0  0  0  0
  -19.6104  -22.4288   34.3011 H   0  0  0  0  0  0  0  0  0  0  0  0
  -18.5828  -21.1292   33.6633 H   0  0  0  0  0  0  0  0  0  0  0  0
  -18.8209  -21.2951   35.4112 H   0  0  0  0  0  0  0  0  0  0  0  0
  -17.6165  -23.4413   35.4198 H   0  0  0  0  0  0  0  0  0  0  0  0
  -16.6019  -22.1552   34.7775 H   0  0  0  0  0  0  0  0  0  0  0  0
  -18.2020  -23.8426   32.7522 H   0  0  0  0  0  0  0  0  0  0  0  0
  -16.9467  -22.7408   32.5510 H   0  0  0  0  0  0  0  0  0  0  0  0
  -17.7124  -25.3133   34.5589 H   0  0  0  0  0  0  0  0  0  0  0  0
  -17.8479  -25.6766   32.7628 H   0  0  0  0  0  0  0  0  0  0  0  0
  -16.0238  -26.9851   34.7734 H   0  0  0  0  0  0  0  0  0  0  0  0
  -17.2575  -27.7114   33.7273 H   0  0  0  0  0  0  0  0  0  0  0  0
  -15.4958  -26.6255   31.9287 H   0  0  0  0  0  0  0  0  0  0  0  0
  -14.8766  -27.7984   29.8773 H   0  0  0  0  0  0  0  0  0  0  0  0
  -12.6657  -26.9128   28.5095 H   0  0  0  0  0  0  0  0  0  0  0  0
  -10.8651  -26.6436   30.3081 H   0  0  0  0  0  0  0  0  0  0  0  0
  -12.7173  -24.0353   30.6714 H   0  0  0  0  0  0  0  0  0  0  0  0
  -10.6733  -22.4515   30.7307 H   0  0  0  0  0  0  0  0  0  0  0  0
  -10.5463  -21.2941   32.0650 H   0  0  0  0  0  0  0  0  0  0  0  0
   -9.9366  -23.1791   33.6295 H   0  0  0  0  0  0  0  0  0  0  0  0
  -10.0421  -24.3223   32.2826 H   0  0  0  0  0  0  0  0  0  0  0  0
   -8.7956  -23.0626   32.2776 H   0  0  0  0  0  0  0  0  0  0  0  0
  -12.4078  -21.2711   33.8537 H   0  0  0  0  0  0  0  0  0  0  0  0
  1  2  1  0
  2  3  1  0
  3  4  1  0
  4  5  1  0
  5  6  1  0
  6  7  1  0
  7  8  1  0
  8  9  2  0
  8 10  1  0
 10 11  1  0
 11 12  2  0
 12 13  1  0
 13 14  1  0
  4 15  1  0
 15 16  2  0
 15 17  1  0
 17 18  2  0
 18 19  1  0
 19 20  1  0
 20 21  1  0
 19 22  1  0
 22 23  2  0
 14 10  2  0
 23 17  1  0
  1 24  1  0
  1 25  1  0
  1 26  1  0
  2 27  1  0
  2 28  1  0
  3 29  1  0
  3 30  1  0
  5 31  1  0
  5 32  1  0
  6 33  1  0
  6 34  1  0
  7 35  1  0
 11 36  1  0
 12 37  1  0
 13 38  1  0
 18 39  1  0
 20 40  1  0
 20 41  1  0
 21 42  1  0
 21 43  1  0
 21 44  1  0
 22 45  1  0
M  END
>  <Energy>  (132) 
148.25426512374133

>  <compound_id>  (132) 
10617

>  <target_id>  (132) 
1

>  <reference_id>  (132) 
96

>  <inspiration_ids>  (132) 
[35, 96]

>  <energy_score>  (132) 
54.421125347511406

>  <distance_score>  (132) 
5.305420371225248

>  <path>  (132) 
/opt/xchem-fragalysis-2/maxwin/BulkDock/SCRATCH/511017/C10617-P96/C10617-P96.minimised.mol

>  <scratch_subdir>  (132) 
/opt/xchem-fragalysis-2/maxwin/BulkDock/SCRATCH/511017/C10617-P96

>  <fragmenstein_runtime>  (132) 
13.735308647155762

>  <fragmenstein_outcome>  (132) 
too moved

>  <fragmenstein_mode>  (132) 
expansion

>  <fragmenstein_error>  (132) 


$$$$
C10618-P35
     RDKit          3D

 42 43  0  0  0  0  0  0  0  0999 V2000
   -8.8343  -19.4269   28.2140 C   0  0  0  0  0  0  0  0  0  0  0  0
  -10.0071  -21.1077   28.3427 C   0  0  0  0  0  0  0  0  0  0  0  0
  -11.0644  -21.2906   29.5462 C   0  0  0  0  0  0  0  0  0  0  0  0
  -11.4359  -22.7107   30.0571 N   0  0  0  0  0  0  0  0  0  0  0  0
  -11.7129  -21.9340   31.3420 C   0  0  0  0  0  0  0  0  0  0  0  0
  -12.5293  -22.8259   32.2971 C   0  0  0  0  0  0  0  0  0  0  0  0
  -11.7812  -24.0162   32.3818 N   0  0  0  0  0  0  0  0  0  0  0  0
  -10.5330  -24.2846   32.9807 C   0  0  0  0  0  0  0  0  0  0  0  0
   -9.8214  -23.5922   33.6423 O   0  0  0  0  0  0  0  0  0  0  0  0
  -10.0675  -25.6367   32.5908 C   0  0  0  0  0  0  0  0  0  0  0  0
  -10.4782  -26.4500   31.4913 C   0  0  0  0  0  0  0  0  0  0  0  0
   -9.5311  -27.4319   31.3887 C   0  0  0  0  0  0  0  0  0  0  0  0
   -8.6452  -27.1740   32.3882 N   0  0  0  0  0  0  0  0  0  0  0  0
   -9.0364  -26.2100   33.2191 N   0  0  0  0  0  0  0  0  0  0  0  0
  -12.3120  -23.3361   29.1606 C   0  0  0  0  0  0  0  0  0  0  0  0
  -13.5062  -23.3462   29.1222 O   0  0  0  0  0  0  0  0  0  0  0  0
  -11.6454  -24.1865   28.1818 C   0  0  0  0  0  0  0  0  0  0  0  0
  -12.0614  -24.3710   26.8791 C   0  0  0  0  0  0  0  0  0  0  0  0
  -11.6083  -25.6087   26.5397 N   0  0  0  0  0  0  0  0  0  0  0  0
  -10.9008  -26.1057   27.6027 C   0  0  0  0  0  0  0  0  0  0  0  0
  -10.3683  -27.4839   27.6357 C   0  0  0  0  0  0  0  0  0  0  0  0
  -10.8067  -25.2112   28.5587 N   0  0  0  0  0  0  0  0  0  0  0  0
   -9.1786  -18.5227   27.6694 H   0  0  0  0  0  0  0  0  0  0  0  0
   -7.8095  -19.8760   27.9290 H   0  0  0  0  0  0  0  0  0  0  0  0
   -8.2250  -18.7593   28.8318 H   0  0  0  0  0  0  0  0  0  0  0  0
   -9.4100  -22.0394   28.2966 H   0  0  0  0  0  0  0  0  0  0  0  0
  -10.6103  -21.2885   27.4374 H   0  0  0  0  0  0  0  0  0  0  0  0
  -12.0047  -20.8459   29.1999 H   0  0  0  0  0  0  0  0  0  0  0  0
  -10.5345  -20.7335   30.3020 H   0  0  0  0  0  0  0  0  0  0  0  0
  -12.4045  -21.1248   31.2185 H   0  0  0  0  0  0  0  0  0  0  0  0
  -10.7869  -21.6695   31.8746 H   0  0  0  0  0  0  0  0  0  0  0  0
  -13.5247  -23.0575   31.9082 H   0  0  0  0  0  0  0  0  0  0  0  0
  -12.6078  -22.3579   33.2826 H   0  0  0  0  0  0  0  0  0  0  0  0
  -12.0552  -24.8107   31.8267 H   0  0  0  0  0  0  0  0  0  0  0  0
  -11.2805  -26.2901   30.7875 H   0  0  0  0  0  0  0  0  0  0  0  0
   -9.3747  -28.2330   30.6824 H   0  0  0  0  0  0  0  0  0  0  0  0
   -7.7833  -27.6704   32.6194 H   0  0  0  0  0  0  0  0  0  0  0  0
  -12.7486  -23.8155   26.2555 H   0  0  0  0  0  0  0  0  0  0  0  0
  -11.8270  -26.1044   25.6885 H   0  0  0  0  0  0  0  0  0  0  0  0
  -10.3091  -27.9145   26.6317 H   0  0  0  0  0  0  0  0  0  0  0  0
  -11.0214  -28.1173   28.2434 H   0  0  0  0  0  0  0  0  0  0  0  0
   -9.3692  -27.4969   28.0775 H   0  0  0  0  0  0  0  0  0  0  0  0
  1  2  1  0
  2  3  1  0
  3  4  1  0
  4  5  1  0
  5  6  1  0
  6  7  1  0
  7  8  1  0
  8  9  2  0
  8 10  1  0
 10 11  1  0
 11 12  2  0
 12 13  1  0
 13 14  1  0
  4 15  1  0
 15 16  2  0
 15 17  1  0
 17 18  2  0
 18 19  1  0
 19 20  1  0
 20 21  1  0
 20 22  2  0
 14 10  2  0
 22 17  1  0
  1 23  1  0
  1 24  1  0
  1 25  1  0
  2 26  1  0
  2 27  1  0
  3 28  1  0
  3 29  1  0
  5 30  1  0
  5 31  1  0
  6 32  1  0
  6 33  1  0
  7 34  1  0
 11 35  1  0
 12 36  1  0
 13 37  1  0
 18 38  1  0
 19 39  1  0
 21 40  1  0
 21 41  1  0
 21 42  1  0
M  END
>  <Energy>  (133) 
271.74547357026802

>  <compound_id>  (133) 
10618

>  <target_id>  (133) 
1

>  <reference_id>  (133) 
35

>  <inspiration_ids>  (133) 
[35, 96]

>  <energy_score>  (133) 
177.38890871765835

>  <distance_score>  (133) 
3.3364646927196517

>  <path>  (133) 
/opt/xchem-fragalysis-2/maxwin/BulkDock/SCRATCH/511017/C10618-P35/C10618-P35.minimised.mol

>  <scratch_subdir>  (133) 
/opt/xchem-fragalysis-2/maxwin/BulkDock/SCRATCH/511017/C10618-P35

>  <fragmenstein_runtime>  (133) 
16.315033435821533

>  <fragmenstein_outcome>  (133) 
too moved

>  <fragmenstein_mode>  (133) 
expansion

>  <fragmenstein_error>  (133) 


$$$$
C10618-P96
     RDKit          3D

 42 43  0  0  0  0  0  0  0  0999 V2000
  -10.9518  -24.9779   29.4355 C   0  0  0  0  0  0  0  0  0  0  0  0
  -12.2722  -24.2662   29.2201 C   0  0  0  0  0  0  0  0  0  0  0  0
  -12.7554  -23.3454   30.3781 C   0  0  0  0  0  0  0  0  0  0  0  0
  -13.3921  -24.0034   31.6221 N   0  0  0  0  0  0  0  0  0  0  0  0
  -13.6191  -22.5099   32.0187 C   0  0  0  0  0  0  0  0  0  0  0  0
  -12.8978  -22.0786   33.3068 C   0  0  0  0  0  0  0  0  0  0  0  0
  -11.5823  -22.6061   33.2909 N   0  0  0  0  0  0  0  0  0  0  0  0
  -10.4136  -22.1641   32.6314 C   0  0  0  0  0  0  0  0  0  0  0  0
  -10.2096  -21.1869   31.9801 O   0  0  0  0  0  0  0  0  0  0  0  0
   -9.3783  -23.2087   32.7666 C   0  0  0  0  0  0  0  0  0  0  0  0
   -9.5372  -24.6013   32.5403 C   0  0  0  0  0  0  0  0  0  0  0  0
   -8.3467  -25.1718   32.8903 C   0  0  0  0  0  0  0  0  0  0  0  0
   -7.5251  -24.1374   33.2088 N   0  0  0  0  0  0  0  0  0  0  0  0
   -8.1289  -22.9429   33.1421 N   0  0  0  0  0  0  0  0  0  0  0  0
  -14.3215  -25.0130   31.2244 C   0  0  0  0  0  0  0  0  0  0  0  0
  -15.5041  -24.9461   31.0064 O   0  0  0  0  0  0  0  0  0  0  0  0
  -13.7029  -26.3458   31.1166 C   0  0  0  0  0  0  0  0  0  0  0  0
  -14.1034  -27.3227   30.2239 C   0  0  0  0  0  0  0  0  0  0  0  0
  -13.3400  -28.4137   30.5047 N   0  0  0  0  0  0  0  0  0  0  0  0
  -12.5548  -28.1028   31.5827 C   0  0  0  0  0  0  0  0  0  0  0  0
  -11.7512  -29.1350   32.2751 C   0  0  0  0  0  0  0  0  0  0  0  0
  -12.6877  -26.8349   31.9144 N   0  0  0  0  0  0  0  0  0  0  0  0
  -10.1624  -24.2692   29.7014 H   0  0  0  0  0  0  0  0  0  0  0  0
  -11.0222  -25.7440   30.2053 H   0  0  0  0  0  0  0  0  0  0  0  0
  -10.6445  -25.4787   28.5109 H   0  0  0  0  0  0  0  0  0  0  0  0
  -13.0454  -24.9735   28.9106 H   0  0  0  0  0  0  0  0  0  0  0  0
  -12.1231  -23.6141   28.3474 H   0  0  0  0  0  0  0  0  0  0  0  0
  -11.8765  -22.7478   30.6417 H   0  0  0  0  0  0  0  0  0  0  0  0
  -13.4827  -22.7454   29.8390 H   0  0  0  0  0  0  0  0  0  0  0  0
  -13.5460  -21.6714   31.3061 H   0  0  0  0  0  0  0  0  0  0  0  0
  -14.6881  -22.4949   32.2786 H   0  0  0  0  0  0  0  0  0  0  0  0
  -13.4109  -22.4292   34.1995 H   0  0  0  0  0  0  0  0  0  0  0  0
  -12.8465  -20.9857   33.3546 H   0  0  0  0  0  0  0  0  0  0  0  0
  -11.4134  -23.5221   33.6781 H   0  0  0  0  0  0  0  0  0  0  0  0
  -10.4170  -25.1143   32.1891 H   0  0  0  0  0  0  0  0  0  0  0  0
   -7.9866  -26.1849   32.9107 H   0  0  0  0  0  0  0  0  0  0  0  0
   -6.5361  -24.1824   33.4639 H   0  0  0  0  0  0  0  0  0  0  0  0
  -14.8665  -27.3281   29.4582 H   0  0  0  0  0  0  0  0  0  0  0  0
  -13.4158  -29.3254   30.0734 H   0  0  0  0  0  0  0  0  0  0  0  0
  -10.9274  -28.6649   32.8133 H   0  0  0  0  0  0  0  0  0  0  0  0
  -11.3349  -29.8597   31.5689 H   0  0  0  0  0  0  0  0  0  0  0  0
  -12.3695  -29.6732   32.9999 H   0  0  0  0  0  0  0  0  0  0  0  0
  1  2  1  0
  2  3  1  0
  3  4  1  0
  4  5  1  0
  5  6  1  0
  6  7  1  0
  7  8  1  0
  8  9  2  0
  8 10  1  0
 10 11  1  0
 11 12  2  0
 12 13  1  0
 13 14  1  0
  4 15  1  0
 15 16  2  0
 15 17  1  0
 17 18  2  0
 18 19  1  0
 19 20  1  0
 20 21  1  0
 20 22  2  0
 14 10  2  0
 22 17  1  0
  1 23  1  0
  1 24  1  0
  1 25  1  0
  2 26  1  0
  2 27  1  0
  3 28  1  0
  3 29  1  0
  5 30  1  0
  5 31  1  0
  6 32  1  0
  6 33  1  0
  7 34  1  0
 11 35  1  0
 12 36  1  0
 13 37  1  0
 18 38  1  0
 19 39  1  0
 21 40  1  0
 21 41  1  0
 21 42  1  0
M  END
>  <Energy>  (134) 
159.6654087185079

>  <compound_id>  (134) 
10618

>  <target_id>  (134) 
1

>  <reference_id>  (134) 
96

>  <inspiration_ids>  (134) 
[35, 96]

>  <energy_score>  (134) 
65.30884386589679

>  <distance_score>  (134) 
4.187126756143165

>  <path>  (134) 
/opt/xchem-fragalysis-2/maxwin/BulkDock/SCRATCH/511017/C10618-P96/C10618-P96.minimised.mol

>  <scratch_subdir>  (134) 
/opt/xchem-fragalysis-2/maxwin/BulkDock/SCRATCH/511017/C10618-P96

>  <fragmenstein_runtime>  (134) 
16.013387203216553

>  <fragmenstein_outcome>  (134) 
too moved

>  <fragmenstein_mode>  (134) 
expansion

>  <fragmenstein_error>  (134) 


$$$$
C10619-P35
     RDKit          3D

 42 43  0  0  0  0  0  0  0  0999 V2000
  -12.0700  -18.4571   28.8132 C   0  0  0  0  0  0  0  0  0  0  0  0
  -12.1743  -20.3946   28.9628 C   0  0  0  0  0  0  0  0  0  0  0  0
  -11.2549  -21.4226   29.7024 C   0  0  0  0  0  0  0  0  0  0  0  0
  -11.9864  -22.8049   29.8630 N   0  0  0  0  0  0  0  0  0  0  0  0
  -12.0838  -22.3388   31.3202 C   0  0  0  0  0  0  0  0  0  0  0  0
  -11.2532  -23.1251   32.3736 C   0  0  0  0  0  0  0  0  0  0  0  0
  -11.4260  -24.5332   32.1748 N   0  0  0  0  0  0  0  0  0  0  0  0
  -10.4721  -25.6033   32.1418 C   0  0  0  0  0  0  0  0  0  0  0  0
   -9.2956  -25.6055   32.3517 O   0  0  0  0  0  0  0  0  0  0  0  0
  -11.1356  -26.8742   31.6596 C   0  0  0  0  0  0  0  0  0  0  0  0
  -12.3844  -27.0037   30.9612 C   0  0  0  0  0  0  0  0  0  0  0  0
  -12.4998  -28.3266   30.6225 C   0  0  0  0  0  0  0  0  0  0  0  0
  -11.3456  -28.9003   31.0394 N   0  0  0  0  0  0  0  0  0  0  0  0
  -10.5477  -28.0852   31.7348 N   0  0  0  0  0  0  0  0  0  0  0  0
  -11.1979  -23.8553   29.2607 C   0  0  0  0  0  0  0  0  0  0  0  0
  -10.3550  -24.5656   29.7329 O   0  0  0  0  0  0  0  0  0  0  0  0
  -11.5826  -24.1350   27.8795 C   0  0  0  0  0  0  0  0  0  0  0  0
  -12.0814  -23.1916   27.0314 N   0  0  0  0  0  0  0  0  0  0  0  0
  -12.3075  -23.8062   25.8986 C   0  0  0  0  0  0  0  0  0  0  0  0
  -12.0104  -25.1267   25.9818 N   0  0  0  0  0  0  0  0  0  0  0  0
  -11.5028  -25.3604   27.2279 C   0  0  0  0  0  0  0  0  0  0  0  0
  -11.0432  -26.7039   27.6410 C   0  0  0  0  0  0  0  0  0  0  0  0
  -12.8857  -17.8817   28.8854 H   0  0  0  0  0  0  0  0  0  0  0  0
  -11.5581  -17.8925   28.0723 H   0  0  0  0  0  0  0  0  0  0  0  0
  -11.2982  -18.0037   29.3762 H   0  0  0  0  0  0  0  0  0  0  0  0
  -13.0897  -20.5202   29.4255 H   0  0  0  0  0  0  0  0  0  0  0  0
  -12.1863  -20.8877   27.9969 H   0  0  0  0  0  0  0  0  0  0  0  0
  -10.4876  -21.6267   28.9442 H   0  0  0  0  0  0  0  0  0  0  0  0
  -10.6590  -21.0381   30.5378 H   0  0  0  0  0  0  0  0  0  0  0  0
  -12.1794  -21.2822   31.5937 H   0  0  0  0  0  0  0  0  0  0  0  0
  -13.1193  -22.6632   31.5249 H   0  0  0  0  0  0  0  0  0  0  0  0
  -10.1938  -22.8837   32.3227 H   0  0  0  0  0  0  0  0  0  0  0  0
  -11.6081  -22.8816   33.3791 H   0  0  0  0  0  0  0  0  0  0  0  0
  -12.3508  -24.9119   32.0258 H   0  0  0  0  0  0  0  0  0  0  0  0
  -13.0911  -26.2277   30.7055 H   0  0  0  0  0  0  0  0  0  0  0  0
  -13.2555  -28.8780   30.0834 H   0  0  0  0  0  0  0  0  0  0  0  0
  -11.0367  -29.8553   30.9011 H   0  0  0  0  0  0  0  0  0  0  0  0
  -12.6948  -23.3364   25.0040 H   0  0  0  0  0  0  0  0  0  0  0  0
  -12.1283  -25.8106   25.2501 H   0  0  0  0  0  0  0  0  0  0  0  0
  -10.2413  -26.6595   28.3816 H   0  0  0  0  0  0  0  0  0  0  0  0
  -10.6658  -27.2740   26.7856 H   0  0  0  0  0  0  0  0  0  0  0  0
  -11.8804  -27.2689   28.0568 H   0  0  0  0  0  0  0  0  0  0  0  0
  1  2  1  0
  2  3  1  0
  3  4  1  0
  4  5  1  0
  5  6  1  0
  6  7  1  0
  7  8  1  0
  8  9  2  0
  8 10  1  0
 10 11  1  0
 11 12  2  0
 12 13  1  0
 13 14  1  0
  4 15  1  0
 15 16  2  0
 15 17  1  0
 17 18  1  0
 18 19  2  0
 19 20  1  0
 20 21  1  0
 21 22  1  0
 14 10  2  0
 21 17  2  0
  1 23  1  0
  1 24  1  0
  1 25  1  0
  2 26  1  0
  2 27  1  0
  3 28  1  0
  3 29  1  0
  5 30  1  0
  5 31  1  0
  6 32  1  0
  6 33  1  0
  7 34  1  0
 11 35  1  0
 12 36  1  0
 13 37  1  0
 19 38  1  0
 20 39  1  0
 22 40  1  0
 22 41  1  0
 22 42  1  0
M  END
>  <Energy>  (135) 
255.50333361606602

>  <compound_id>  (135) 
10619

>  <target_id>  (135) 
1

>  <reference_id>  (135) 
35

>  <inspiration_ids>  (135) 
[35, 96]

>  <energy_score>  (135) 
156.50963352822464

>  <distance_score>  (135) 
3.968620047662744

>  <path>  (135) 
/opt/xchem-fragalysis-2/maxwin/BulkDock/SCRATCH/511017/C10619-P35/C10619-P35.minimised.mol

>  <scratch_subdir>  (135) 
/opt/xchem-fragalysis-2/maxwin/BulkDock/SCRATCH/511017/C10619-P35

>  <fragmenstein_runtime>  (135) 
19.169491052627563

>  <fragmenstein_outcome>  (135) 
too moved

>  <fragmenstein_mode>  (135) 
expansion

>  <fragmenstein_error>  (135) 


$$$$
C10619-P96
     RDKit          3D

 42 43  0  0  0  0  0  0  0  0999 V2000
  -10.9025  -21.5761   28.1649 C   0  0  0  0  0  0  0  0  0  0  0  0
  -11.2130  -20.9787   29.5096 C   0  0  0  0  0  0  0  0  0  0  0  0
  -11.4473  -22.0875   30.5349 C   0  0  0  0  0  0  0  0  0  0  0  0
  -12.8134  -22.7623   30.3256 N   0  0  0  0  0  0  0  0  0  0  0  0
  -13.2257  -21.7761   31.4525 C   0  0  0  0  0  0  0  0  0  0  0  0
  -13.4319  -22.5016   32.7964 C   0  0  0  0  0  0  0  0  0  0  0  0
  -12.1659  -23.0724   33.0865 N   0  0  0  0  0  0  0  0  0  0  0  0
  -11.0175  -22.5182   33.6816 C   0  0  0  0  0  0  0  0  0  0  0  0
  -10.8374  -21.4526   34.1688 O   0  0  0  0  0  0  0  0  0  0  0  0
   -9.8569  -23.4571   33.5471 C   0  0  0  0  0  0  0  0  0  0  0  0
   -9.6581  -24.4799   32.5648 C   0  0  0  0  0  0  0  0  0  0  0  0
   -8.4019  -24.9707   32.7832 C   0  0  0  0  0  0  0  0  0  0  0  0
   -7.8676  -24.1568   33.7218 N   0  0  0  0  0  0  0  0  0  0  0  0
   -8.7573  -23.3562   34.3091 N   0  0  0  0  0  0  0  0  0  0  0  0
  -12.6657  -24.1994   30.3402 C   0  0  0  0  0  0  0  0  0  0  0  0
  -12.7371  -24.9845   31.2521 O   0  0  0  0  0  0  0  0  0  0  0  0
  -12.2710  -24.7358   29.0252 C   0  0  0  0  0  0  0  0  0  0  0  0
  -11.0351  -24.4596   28.4654 N   0  0  0  0  0  0  0  0  0  0  0  0
  -10.9981  -25.1176   27.3368 C   0  0  0  0  0  0  0  0  0  0  0  0
  -12.1065  -25.8867   27.1721 N   0  0  0  0  0  0  0  0  0  0  0  0
  -12.9124  -25.6985   28.2633 C   0  0  0  0  0  0  0  0  0  0  0  0
  -14.1654  -26.4516   28.4367 C   0  0  0  0  0  0  0  0  0  0  0  0
  -11.7050  -22.2246   27.8156 H   0  0  0  0  0  0  0  0  0  0  0  0
   -9.9678  -22.1426   28.1930 H   0  0  0  0  0  0  0  0  0  0  0  0
  -10.8055  -20.7889   27.4316 H   0  0  0  0  0  0  0  0  0  0  0  0
  -10.3875  -20.3408   29.8260 H   0  0  0  0  0  0  0  0  0  0  0  0
  -12.0581  -20.3006   29.4440 H   0  0  0  0  0  0  0  0  0  0  0  0
  -10.6857  -22.8563   30.3482 H   0  0  0  0  0  0  0  0  0  0  0  0
  -11.1168  -21.7152   31.5055 H   0  0  0  0  0  0  0  0  0  0  0  0
  -14.2218  -21.4460   31.1953 H   0  0  0  0  0  0  0  0  0  0  0  0
  -12.7382  -20.7932   31.5626 H   0  0  0  0  0  0  0  0  0  0  0  0
  -14.1851  -23.2910   32.7275 H   0  0  0  0  0  0  0  0  0  0  0  0
  -13.7064  -21.7888   33.5792 H   0  0  0  0  0  0  0  0  0  0  0  0
  -11.9808  -24.0390   32.8518 H   0  0  0  0  0  0  0  0  0  0  0  0
  -10.3203  -24.8192   31.7843 H   0  0  0  0  0  0  0  0  0  0  0  0
   -7.8288  -25.7471   32.3053 H   0  0  0  0  0  0  0  0  0  0  0  0
   -6.9042  -24.1077   34.0394 H   0  0  0  0  0  0  0  0  0  0  0  0
  -10.2084  -25.0922   26.6060 H   0  0  0  0  0  0  0  0  0  0  0  0
  -12.2531  -26.5371   26.4094 H   0  0  0  0  0  0  0  0  0  0  0  0
  -13.9859  -27.5276   28.3407 H   0  0  0  0  0  0  0  0  0  0  0  0
  -14.8991  -26.1606   27.6785 H   0  0  0  0  0  0  0  0  0  0  0  0
  -14.6048  -26.2779   29.4234 H   0  0  0  0  0  0  0  0  0  0  0  0
  1  2  1  0
  2  3  1  0
  3  4  1  0
  4  5  1  0
  5  6  1  0
  6  7  1  0
  7  8  1  0
  8  9  2  0
  8 10  1  0
 10 11  1  0
 11 12  2  0
 12 13  1  0
 13 14  1  0
  4 15  1  0
 15 16  2  0
 15 17  1  0
 17 18  1  0
 18 19  2  0
 19 20  1  0
 20 21  1  0
 21 22  1  0
 14 10  2  0
 21 17  2  0
  1 23  1  0
  1 24  1  0
  1 25  1  0
  2 26  1  0
  2 27  1  0
  3 28  1  0
  3 29  1  0
  5 30  1  0
  5 31  1  0
  6 32  1  0
  6 33  1  0
  7 34  1  0
 11 35  1  0
 12 36  1  0
 13 37  1  0
 19 38  1  0
 20 39  1  0
 22 40  1  0
 22 41  1  0
 22 42  1  0
M  END
>  <Energy>  (136) 
169.80875357838534

>  <compound_id>  (136) 
10619

>  <target_id>  (136) 
1

>  <reference_id>  (136) 
96

>  <inspiration_ids>  (136) 
[35, 96]

>  <energy_score>  (136) 
70.81505349053901

>  <distance_score>  (136) 
2.935297075572528

>  <path>  (136) 
/opt/xchem-fragalysis-2/maxwin/BulkDock/SCRATCH/511017/C10619-P96/C10619-P96.minimised.mol

>  <scratch_subdir>  (136) 
/opt/xchem-fragalysis-2/maxwin/BulkDock/SCRATCH/511017/C10619-P96

>  <fragmenstein_runtime>  (136) 
11.381893873214722

>  <fragmenstein_outcome>  (136) 
too moved

>  <fragmenstein_mode>  (136) 
expansion

>  <fragmenstein_error>  (136) 


$$$$
C10620-P35
     RDKit          3D

 42 43  0  0  0  0  0  0  0  0999 V2000
   -6.9157  -21.5563   31.1124 C   0  0  0  0  0  0  0  0  0  0  0  0
   -7.4656  -22.1197   28.8070 C   0  0  0  0  0  0  0  0  0  0  0  0
   -9.4018  -22.3906   28.3700 C   0  0  0  0  0  0  0  0  0  0  0  0
  -10.7821  -23.1516   28.9793 N   0  0  0  0  0  0  0  0  0  0  0  0
  -11.0183  -21.7912   29.5823 C   0  0  0  0  0  0  0  0  0  0  0  0
  -11.8549  -22.1026   30.8841 C   0  0  0  0  0  0  0  0  0  0  0  0
  -11.4191  -23.3660   31.4047 N   0  0  0  0  0  0  0  0  0  0  0  0
  -10.8994  -23.7240   32.6826 C   0  0  0  0  0  0  0  0  0  0  0  0
  -10.7663  -23.0781   33.6798 O   0  0  0  0  0  0  0  0  0  0  0  0
  -10.3863  -25.1286   32.6085 C   0  0  0  0  0  0  0  0  0  0  0  0
  -10.7688  -26.1690   31.7129 C   0  0  0  0  0  0  0  0  0  0  0  0
   -9.7769  -27.1086   31.7987 C   0  0  0  0  0  0  0  0  0  0  0  0
   -8.9474  -26.6770   32.7863 N   0  0  0  0  0  0  0  0  0  0  0  0
   -9.3707  -25.5552   33.3751 N   0  0  0  0  0  0  0  0  0  0  0  0
  -11.4545  -23.8201   27.9457 C   0  0  0  0  0  0  0  0  0  0  0  0
  -12.3256  -23.4494   27.2153 O   0  0  0  0  0  0  0  0  0  0  0  0
  -11.0325  -25.1877   27.8854 C   0  0  0  0  0  0  0  0  0  0  0  0
  -11.4919  -26.0777   26.9514 C   0  0  0  0  0  0  0  0  0  0  0  0
  -10.7317  -27.1657   27.1726 N   0  0  0  0  0  0  0  0  0  0  0  0
  -10.5290  -28.1799   26.2044 C   0  0  0  0  0  0  0  0  0  0  0  0
  -10.0362  -27.0130   28.3230 C   0  0  0  0  0  0  0  0  0  0  0  0
  -10.1592  -25.7882   28.7647 N   0  0  0  0  0  0  0  0  0  0  0  0
   -6.0047  -20.8068   31.4003 H   0  0  0  0  0  0  0  0  0  0  0  0
   -7.4117  -21.2465   32.1330 H   0  0  0  0  0  0  0  0  0  0  0  0
   -6.7418  -22.4956   31.7253 H   0  0  0  0  0  0  0  0  0  0  0  0
   -7.3050  -21.3320   27.9335 H   0  0  0  0  0  0  0  0  0  0  0  0
   -6.7428  -22.6884   28.0656 H   0  0  0  0  0  0  0  0  0  0  0  0
   -9.7870  -21.4646   27.9305 H   0  0  0  0  0  0  0  0  0  0  0  0
   -9.1912  -23.1689   27.6516 H   0  0  0  0  0  0  0  0  0  0  0  0
  -10.2615  -21.1139   29.9296 H   0  0  0  0  0  0  0  0  0  0  0  0
  -11.7074  -21.2574   28.9209 H   0  0  0  0  0  0  0  0  0  0  0  0
  -12.9133  -22.2148   30.6338 H   0  0  0  0  0  0  0  0  0  0  0  0
  -11.7342  -21.3287   31.6443 H   0  0  0  0  0  0  0  0  0  0  0  0
  -11.3019  -24.1470   30.7702 H   0  0  0  0  0  0  0  0  0  0  0  0
  -11.5923  -26.1756   31.0138 H   0  0  0  0  0  0  0  0  0  0  0  0
   -9.5709  -28.0070   31.2387 H   0  0  0  0  0  0  0  0  0  0  0  0
   -8.0954  -27.1222   33.1298 H   0  0  0  0  0  0  0  0  0  0  0  0
  -12.1799  -25.9606   26.1245 H   0  0  0  0  0  0  0  0  0  0  0  0
  -11.1918  -28.9887   26.4839 H   0  0  0  0  0  0  0  0  0  0  0  0
   -9.4792  -28.4646   26.1869 H   0  0  0  0  0  0  0  0  0  0  0  0
  -10.7776  -27.7940   25.2160 H   0  0  0  0  0  0  0  0  0  0  0  0
   -9.4216  -27.7900   28.7525 H   0  0  0  0  0  0  0  0  0  0  0  0
  1  2  1  0
  2  3  1  0
  3  4  1  0
  4  5  1  0
  5  6  1  0
  6  7  1  0
  7  8  1  0
  8  9  2  0
  8 10  1  0
 10 11  1  0
 11 12  2  0
 12 13  1  0
 13 14  1  0
  4 15  1  0
 15 16  2  0
 15 17  1  0
 17 18  2  0
 18 19  1  0
 19 20  1  0
 19 21  1  0
 21 22  2  0
 14 10  2  0
 22 17  1  0
  1 23  1  0
  1 24  1  0
  1 25  1  0
  2 26  1  0
  2 27  1  0
  3 28  1  0
  3 29  1  0
  5 30  1  0
  5 31  1  0
  6 32  1  0
  6 33  1  0
  7 34  1  0
 11 35  1  0
 12 36  1  0
 13 37  1  0
 18 38  1  0
 20 39  1  0
 20 40  1  0
 20 41  1  0
 21 42  1  0
M  END
>  <Energy>  (137) 
639.4652173928896

>  <compound_id>  (137) 
10620

>  <target_id>  (137) 
1

>  <reference_id>  (137) 
35

>  <inspiration_ids>  (137) 
[35, 96]

>  <energy_score>  (137) 
537.3098929108775

>  <distance_score>  (137) 
3.660193274212524

>  <path>  (137) 
/opt/xchem-fragalysis-2/maxwin/BulkDock/SCRATCH/511017/C10620-P35/C10620-P35.minimised.mol

>  <scratch_subdir>  (137) 
/opt/xchem-fragalysis-2/maxwin/BulkDock/SCRATCH/511017/C10620-P35

>  <fragmenstein_runtime>  (137) 
13.357935190200806

>  <fragmenstein_outcome>  (137) 
too moved

>  <fragmenstein_mode>  (137) 
expansion

>  <fragmenstein_error>  (137) 


$$$$
C10620-P96
     RDKit          3D

 42 43  0  0  0  0  0  0  0  0999 V2000
  -10.9849  -22.8844   30.0139 C   0  0  0  0  0  0  0  0  0  0  0  0
  -12.4580  -22.5384   29.9873 C   0  0  0  0  0  0  0  0  0  0  0  0
  -13.0336  -22.0032   31.3306 C   0  0  0  0  0  0  0  0  0  0  0  0
  -13.2730  -23.0802   32.4047 N   0  0  0  0  0  0  0  0  0  0  0  0
  -13.2172  -21.8659   33.3187 C   0  0  0  0  0  0  0  0  0  0  0  0
  -11.8351  -21.4554   33.8290 C   0  0  0  0  0  0  0  0  0  0  0  0
  -10.9017  -22.5143   33.6088 N   0  0  0  0  0  0  0  0  0  0  0  0
   -9.5951  -22.4987   33.1034 C   0  0  0  0  0  0  0  0  0  0  0  0
   -8.8932  -21.5942   32.7988 O   0  0  0  0  0  0  0  0  0  0  0  0
   -9.0637  -23.8474   33.0001 C   0  0  0  0  0  0  0  0  0  0  0  0
   -7.7354  -24.2358   33.1472 C   0  0  0  0  0  0  0  0  0  0  0  0
   -7.7378  -25.5990   33.0753 C   0  0  0  0  0  0  0  0  0  0  0  0
   -9.0056  -25.9411   32.7932 N   0  0  0  0  0  0  0  0  0  0  0  0
   -9.8378  -24.9072   32.7495 N   0  0  0  0  0  0  0  0  0  0  0  0
  -14.3785  -23.9205   32.0311 C   0  0  0  0  0  0  0  0  0  0  0  0
  -15.5503  -23.8215   32.2753 O   0  0  0  0  0  0  0  0  0  0  0  0
  -13.9546  -25.0789   31.2129 C   0  0  0  0  0  0  0  0  0  0  0  0
  -12.6898  -25.6061   31.0739 C   0  0  0  0  0  0  0  0  0  0  0  0
  -12.7436  -26.4175   29.9866 N   0  0  0  0  0  0  0  0  0  0  0  0
  -11.6093  -26.9491   29.2843 C   0  0  0  0  0  0  0  0  0  0  0  0
  -14.0474  -26.5276   29.6165 C   0  0  0  0  0  0  0  0  0  0  0  0
  -14.8141  -25.7517   30.3508 N   0  0  0  0  0  0  0  0  0  0  0  0
  -10.4217  -22.0395   30.4042 H   0  0  0  0  0  0  0  0  0  0  0  0
  -10.7683  -23.7528   30.6234 H   0  0  0  0  0  0  0  0  0  0  0  0
  -10.6243  -23.0933   29.0014 H   0  0  0  0  0  0  0  0  0  0  0  0
  -13.0395  -23.3551   29.5647 H   0  0  0  0  0  0  0  0  0  0  0  0
  -12.5104  -21.7303   29.2571 H   0  0  0  0  0  0  0  0  0  0  0  0
  -12.3055  -21.2124   31.5588 H   0  0  0  0  0  0  0  0  0  0  0  0
  -13.9873  -21.5186   31.1235 H   0  0  0  0  0  0  0  0  0  0  0  0
  -13.9010  -21.0276   33.0954 H   0  0  0  0  0  0  0  0  0  0  0  0
  -13.7186  -22.2630   34.2094 H   0  0  0  0  0  0  0  0  0  0  0  0
  -11.4665  -20.5569   33.3224 H   0  0  0  0  0  0  0  0  0  0  0  0
  -11.8634  -21.2120   34.8909 H   0  0  0  0  0  0  0  0  0  0  0  0
  -11.2175  -23.4772   33.6755 H   0  0  0  0  0  0  0  0  0  0  0  0
   -6.8821  -23.6137   33.3222 H   0  0  0  0  0  0  0  0  0  0  0  0
   -6.9285  -26.3075   33.1623 H   0  0  0  0  0  0  0  0  0  0  0  0
   -9.3900  -26.8626   32.6439 H   0  0  0  0  0  0  0  0  0  0  0  0
  -11.7684  -25.3614   31.5613 H   0  0  0  0  0  0  0  0  0  0  0  0
  -10.7046  -26.4314   29.6113 H   0  0  0  0  0  0  0  0  0  0  0  0
  -11.7538  -26.7824   28.2146 H   0  0  0  0  0  0  0  0  0  0  0  0
  -11.5395  -28.0175   29.4998 H   0  0  0  0  0  0  0  0  0  0  0  0
  -14.3839  -27.1546   28.8007 H   0  0  0  0  0  0  0  0  0  0  0  0
  1  2  1  0
  2  3  1  0
  3  4  1  0
  4  5  1  0
  5  6  1  0
  6  7  1  0
  7  8  1  0
  8  9  2  0
  8 10  1  0
 10 11  1  0
 11 12  2  0
 12 13  1  0
 13 14  1  0
  4 15  1  0
 15 16  2  0
 15 17  1  0
 17 18  2  0
 18 19  1  0
 19 20  1  0
 19 21  1  0
 21 22  2  0
 14 10  2  0
 22 17  1  0
  1 23  1  0
  1 24  1  0
  1 25  1  0
  2 26  1  0
  2 27  1  0
  3 28  1  0
  3 29  1  0
  5 30  1  0
  5 31  1  0
  6 32  1  0
  6 33  1  0
  7 34  1  0
 11 35  1  0
 12 36  1  0
 13 37  1  0
 18 38  1  0
 20 39  1  0
 20 40  1  0
 20 41  1  0
 21 42  1  0
M  END
>  <Energy>  (138) 
154.96065871545221

>  <compound_id>  (138) 
10620

>  <target_id>  (138) 
1

>  <reference_id>  (138) 
96

>  <inspiration_ids>  (138) 
[35, 96]

>  <energy_score>  (138) 
52.805334233444796

>  <distance_score>  (138) 
3.6250482455088453

>  <path>  (138) 
/opt/xchem-fragalysis-2/maxwin/BulkDock/SCRATCH/511017/C10620-P96/C10620-P96.minimised.mol

>  <scratch_subdir>  (138) 
/opt/xchem-fragalysis-2/maxwin/BulkDock/SCRATCH/511017/C10620-P96

>  <fragmenstein_runtime>  (138) 
13.240432024002075

>  <fragmenstein_outcome>  (138) 
too moved

>  <fragmenstein_mode>  (138) 
expansion

>  <fragmenstein_error>  (138) 


$$$$
C10621-P35
     RDKit          3D

 48 49  0  0  0  0  0  0  0  0999 V2000
  -10.6856  -26.6631   30.7309 C   0  0  0  0  0  0  0  0  0  0  0  0
  -12.1051  -26.1021   30.6620 C   0  0  0  0  0  0  0  0  0  0  0  0
  -13.1721  -27.2041   30.8051 C   0  0  0  0  0  0  0  0  0  0  0  0
  -14.5149  -27.2334   30.0494 N   0  0  0  0  0  0  0  0  0  0  0  0
  -15.0391  -26.8316   31.4012 C   0  0  0  0  0  0  0  0  0  0  0  0
  -15.4622  -25.3209   31.5478 C   0  0  0  0  0  0  0  0  0  0  0  0
  -14.4507  -24.3551   31.9144 N   0  0  0  0  0  0  0  0  0  0  0  0
  -13.6747  -23.4582   31.1144 C   0  0  0  0  0  0  0  0  0  0  0  0
  -13.6051  -23.3299   29.9281 O   0  0  0  0  0  0  0  0  0  0  0  0
  -12.7701  -22.6416   31.9521 C   0  0  0  0  0  0  0  0  0  0  0  0
  -11.6130  -21.9557   31.5097 C   0  0  0  0  0  0  0  0  0  0  0  0
  -11.0348  -21.4386   32.6415 C   0  0  0  0  0  0  0  0  0  0  0  0
  -11.8607  -21.7818   33.6652 N   0  0  0  0  0  0  0  0  0  0  0  0
  -12.9372  -22.4751   33.2735 N   0  0  0  0  0  0  0  0  0  0  0  0
  -14.4153  -26.4998   28.8457 C   0  0  0  0  0  0  0  0  0  0  0  0
  -14.6390  -25.3442   28.6165 O   0  0  0  0  0  0  0  0  0  0  0  0
  -13.8466  -27.2514   27.7014 C   0  0  0  0  0  0  0  0  0  0  0  0
  -13.7888  -26.6005   26.4712 C   0  0  0  0  0  0  0  0  0  0  0  0
  -12.4340  -26.3578   26.4262 N   0  0  0  0  0  0  0  0  0  0  0  0
  -11.7931  -25.0842   26.1345 C   0  0  0  0  0  0  0  0  0  0  0  0
  -12.7155  -23.9781   25.6468 C   0  0  0  0  0  0  0  0  0  0  0  0
  -11.0474  -24.5510   27.3601 C   0  0  0  0  0  0  0  0  0  0  0  0
  -11.8358  -27.4206   27.0522 C   0  0  0  0  0  0  0  0  0  0  0  0
  -12.7141  -28.0460   27.8090 N   0  0  0  0  0  0  0  0  0  0  0  0
   -9.9556  -25.8499   30.6616 H   0  0  0  0  0  0  0  0  0  0  0  0
  -10.5199  -27.1880   31.6769 H   0  0  0  0  0  0  0  0  0  0  0  0
  -10.4910  -27.3603   29.9103 H   0  0  0  0  0  0  0  0  0  0  0  0
  -12.1846  -25.3940   31.4801 H   0  0  0  0  0  0  0  0  0  0  0  0
  -12.2131  -25.5604   29.7268 H   0  0  0  0  0  0  0  0  0  0  0  0
  -13.0935  -27.7357   31.7679 H   0  0  0  0  0  0  0  0  0  0  0  0
  -12.6998  -28.0199   30.2302 H   0  0  0  0  0  0  0  0  0  0  0  0
  -14.7260  -27.3142   32.3341 H   0  0  0  0  0  0  0  0  0  0  0  0
  -16.0325  -27.3085   31.3202 H   0  0  0  0  0  0  0  0  0  0  0  0
  -16.2117  -25.2681   32.3465 H   0  0  0  0  0  0  0  0  0  0  0  0
  -15.9577  -24.9846   30.6368 H   0  0  0  0  0  0  0  0  0  0  0  0
  -14.3169  -24.1226   32.8967 H   0  0  0  0  0  0  0  0  0  0  0  0
  -11.2651  -21.8876   30.4903 H   0  0  0  0  0  0  0  0  0  0  0  0
  -10.1378  -20.8595   32.8105 H   0  0  0  0  0  0  0  0  0  0  0  0
  -11.7625  -21.5657   34.6515 H   0  0  0  0  0  0  0  0  0  0  0  0
  -14.4914  -25.8942   26.0526 H   0  0  0  0  0  0  0  0  0  0  0  0
  -11.1319  -25.3029   25.3021 H   0  0  0  0  0  0  0  0  0  0  0  0
  -12.1412  -23.2018   25.1333 H   0  0  0  0  0  0  0  0  0  0  0  0
  -13.1878  -23.5239   26.5071 H   0  0  0  0  0  0  0  0  0  0  0  0
  -13.5086  -24.3087   24.9743 H   0  0  0  0  0  0  0  0  0  0  0  0
  -11.7466  -24.2057   28.1271 H   0  0  0  0  0  0  0  0  0  0  0  0
  -10.4304  -23.6948   27.0948 H   0  0  0  0  0  0  0  0  0  0  0  0
  -10.4076  -25.3045   27.8253 H   0  0  0  0  0  0  0  0  0  0  0  0
  -10.7748  -27.6302   27.0013 H   0  0  0  0  0  0  0  0  0  0  0  0
  1  2  1  0
  2  3  1  0
  3  4  1  0
  4  5  1  0
  5  6  1  0
  6  7  1  0
  7  8  1  0
  8  9  2  0
  8 10  1  0
 10 11  1  0
 11 12  2  0
 12 13  1  0
 13 14  1  0
  4 15  1  0
 15 16  2  0
 15 17  1  0
 17 18  2  0
 18 19  1  0
 19 20  1  0
 20 21  1  0
 20 22  1  0
 19 23  1  0
 23 24  2  0
 14 10  2  0
 24 17  1  0
  1 25  1  0
  1 26  1  0
  1 27  1  0
  2 28  1  0
  2 29  1  0
  3 30  1  0
  3 31  1  0
  5 32  1  0
  5 33  1  0
  6 34  1  0
  6 35  1  0
  7 36  1  0
 11 37  1  0
 12 38  1  0
 13 39  1  0
 18 40  1  0
 20 41  1  0
 21 42  1  0
 21 43  1  0
 21 44  1  0
 22 45  1  0
 22 46  1  0
 22 47  1  0
 23 48  1  0
M  END
>  <Energy>  (139) 
206.18655990045858

>  <compound_id>  (139) 
10621

>  <target_id>  (139) 
1

>  <reference_id>  (139) 
35

>  <inspiration_ids>  (139) 
[35, 96]

>  <energy_score>  (139) 
90.8676215320802

>  <distance_score>  (139) 
5.155467811668105

>  <path>  (139) 
/opt/xchem-fragalysis-2/maxwin/BulkDock/SCRATCH/511017/C10621-P35/C10621-P35.minimised.mol

>  <scratch_subdir>  (139) 
/opt/xchem-fragalysis-2/maxwin/BulkDock/SCRATCH/511017/C10621-P35

>  <fragmenstein_runtime>  (139) 
15.827866315841675

>  <fragmenstein_outcome>  (139) 
too moved

>  <fragmenstein_mode>  (139) 
expansion

>  <fragmenstein_error>  (139) 


$$$$
C10621-P96
     RDKit          3D

 48 49  0  0  0  0  0  0  0  0999 V2000
   -8.3266  -24.5647   33.3452 C   0  0  0  0  0  0  0  0  0  0  0  0
   -9.4558  -24.2659   32.3741 C   0  0  0  0  0  0  0  0  0  0  0  0
   -9.9645  -22.8078   32.5336 C   0  0  0  0  0  0  0  0  0  0  0  0
  -11.2871  -22.4940   31.7967 N   0  0  0  0  0  0  0  0  0  0  0  0
  -10.9439  -21.0852   32.2363 C   0  0  0  0  0  0  0  0  0  0  0  0
  -11.7832  -20.6652   33.4675 C   0  0  0  0  0  0  0  0  0  0  0  0
  -13.1046  -21.2216   33.3730 N   0  0  0  0  0  0  0  0  0  0  0  0
  -14.3787  -20.6025   33.3851 C   0  0  0  0  0  0  0  0  0  0  0  0
  -14.6867  -19.4464   33.3987 O   0  0  0  0  0  0  0  0  0  0  0  0
  -15.4173  -21.6627   33.3605 C   0  0  0  0  0  0  0  0  0  0  0  0
  -16.8095  -21.5013   33.1740 C   0  0  0  0  0  0  0  0  0  0  0  0
  -17.3215  -22.7754   33.1353 C   0  0  0  0  0  0  0  0  0  0  0  0
  -16.2605  -23.6101   33.2875 N   0  0  0  0  0  0  0  0  0  0  0  0
  -15.1056  -22.9711   33.5208 N   0  0  0  0  0  0  0  0  0  0  0  0
  -11.2833  -23.0915   30.5076 C   0  0  0  0  0  0  0  0  0  0  0  0
  -10.9199  -22.6600   29.4471 O   0  0  0  0  0  0  0  0  0  0  0  0
  -11.9426  -24.4109   30.6219 C   0  0  0  0  0  0  0  0  0  0  0  0
  -11.8079  -25.5423   29.8371 C   0  0  0  0  0  0  0  0  0  0  0  0
  -12.6597  -26.4642   30.3865 N   0  0  0  0  0  0  0  0  0  0  0  0
  -12.9337  -27.8369   29.9964 C   0  0  0  0  0  0  0  0  0  0  0  0
  -12.2444  -28.2721   28.7155 C   0  0  0  0  0  0  0  0  0  0  0  0
  -12.6242  -28.8285   31.1239 C   0  0  0  0  0  0  0  0  0  0  0  0
  -13.3265  -25.8578   31.4112 C   0  0  0  0  0  0  0  0  0  0  0  0
  -12.8962  -24.6445   31.6065 N   0  0  0  0  0  0  0  0  0  0  0  0
   -7.4909  -23.8771   33.1921 H   0  0  0  0  0  0  0  0  0  0  0  0
   -8.6687  -24.4661   34.3793 H   0  0  0  0  0  0  0  0  0  0  0  0
   -7.9623  -25.5865   33.2031 H   0  0  0  0  0  0  0  0  0  0  0  0
   -9.0873  -24.4231   31.3530 H   0  0  0  0  0  0  0  0  0  0  0  0
  -10.2512  -24.9851   32.5386 H   0  0  0  0  0  0  0  0  0  0  0  0
  -10.0941  -22.6517   33.6134 H   0  0  0  0  0  0  0  0  0  0  0  0
   -9.0997  -22.2654   32.1306 H   0  0  0  0  0  0  0  0  0  0  0  0
   -9.9284  -20.6745   32.2538 H   0  0  0  0  0  0  0  0  0  0  0  0
  -11.3690  -20.5054   31.4006 H   0  0  0  0  0  0  0  0  0  0  0  0
  -11.8499  -19.5759   33.5381 H   0  0  0  0  0  0  0  0  0  0  0  0
  -11.3554  -21.0488   34.3958 H   0  0  0  0  0  0  0  0  0  0  0  0
  -13.2272  -22.2352   33.4475 H   0  0  0  0  0  0  0  0  0  0  0  0
  -17.3468  -20.5739   33.0349 H   0  0  0  0  0  0  0  0  0  0  0  0
  -18.3246  -23.1464   32.9833 H   0  0  0  0  0  0  0  0  0  0  0  0
  -16.2595  -24.6239   33.2912 H   0  0  0  0  0  0  0  0  0  0  0  0
  -11.1835  -25.7338   28.9762 H   0  0  0  0  0  0  0  0  0  0  0  0
  -14.0157  -27.8704   29.8074 H   0  0  0  0  0  0  0  0  0  0  0  0
  -12.5161  -27.6030   27.8926 H   0  0  0  0  0  0  0  0  0  0  0  0
  -11.1567  -28.2632   28.8340 H   0  0  0  0  0  0  0  0  0  0  0  0
  -12.5442  -29.2865   28.4314 H   0  0  0  0  0  0  0  0  0  0  0  0
  -11.5795  -28.7674   31.4371 H   0  0  0  0  0  0  0  0  0  0  0  0
  -12.8269  -29.8572   30.8073 H   0  0  0  0  0  0  0  0  0  0  0  0
  -13.2397  -28.6332   32.0087 H   0  0  0  0  0  0  0  0  0  0  0  0
  -14.0953  -26.3503   31.9909 H   0  0  0  0  0  0  0  0  0  0  0  0
  1  2  1  0
  2  3  1  0
  3  4  1  0
  4  5  1  0
  5  6  1  0
  6  7  1  0
  7  8  1  0
  8  9  2  0
  8 10  1  0
 10 11  1  0
 11 12  2  0
 12 13  1  0
 13 14  1  0
  4 15  1  0
 15 16  2  0
 15 17  1  0
 17 18  2  0
 18 19  1  0
 19 20  1  0
 20 21  1  0
 20 22  1  0
 19 23  1  0
 23 24  2  0
 14 10  2  0
 24 17  1  0
  1 25  1  0
  1 26  1  0
  1 27  1  0
  2 28  1  0
  2 29  1  0
  3 30  1  0
  3 31  1  0
  5 32  1  0
  5 33  1  0
  6 34  1  0
  6 35  1  0
  7 36  1  0
 11 37  1  0
 12 38  1  0
 13 39  1  0
 18 40  1  0
 20 41  1  0
 21 42  1  0
 21 43  1  0
 21 44  1  0
 22 45  1  0
 22 46  1  0
 22 47  1  0
 23 48  1  0
M  END
>  <Energy>  (140) 
149.71421721188401

>  <compound_id>  (140) 
10621

>  <target_id>  (140) 
1

>  <reference_id>  (140) 
96

>  <inspiration_ids>  (140) 
[35, 96]

>  <energy_score>  (140) 
34.39527884350417

>  <distance_score>  (140) 
4.523298152763579

>  <path>  (140) 
/opt/xchem-fragalysis-2/maxwin/BulkDock/SCRATCH/511017/C10621-P96/C10621-P96.minimised.mol

>  <scratch_subdir>  (140) 
/opt/xchem-fragalysis-2/maxwin/BulkDock/SCRATCH/511017/C10621-P96

>  <fragmenstein_runtime>  (140) 
11.512359857559204

>  <fragmenstein_outcome>  (140) 
too moved

>  <fragmenstein_mode>  (140) 
expansion

>  <fragmenstein_error>  (140) 


$$$$
C10622-P35
     RDKit          3D

 45 46  0  0  0  0  0  0  0  0999 V2000
  -12.7845  -25.7656   25.9058 C   0  0  0  0  0  0  0  0  0  0  0  0
  -11.6121  -25.1237   26.6272 C   0  0  0  0  0  0  0  0  0  0  0  0
  -11.9930  -24.4491   27.8428 N   0  0  0  0  0  0  0  0  0  0  0  0
  -12.7470  -24.9813   28.8429 C   0  0  0  0  0  0  0  0  0  0  0  0
  -12.9309  -24.1237   29.8193 N   0  0  0  0  0  0  0  0  0  0  0  0
  -12.1617  -23.0343   29.4873 C   0  0  0  0  0  0  0  0  0  0  0  0
  -11.9058  -21.9144   30.3872 C   0  0  0  0  0  0  0  0  0  0  0  0
  -11.1123  -21.1184   30.0932 O   0  0  0  0  0  0  0  0  0  0  0  0
  -12.7322  -22.0671   31.6686 N   0  0  0  0  0  0  0  0  0  0  0  0
  -12.6898  -21.3176   32.9169 C   0  0  0  0  0  0  0  0  0  0  0  0
  -12.0191  -22.0419   34.0679 C   0  0  0  0  0  0  0  0  0  0  0  0
  -11.4204  -23.2142   33.5029 N   0  0  0  0  0  0  0  0  0  0  0  0
   -9.9861  -23.5174   33.1728 C   0  0  0  0  0  0  0  0  0  0  0  0
   -9.0284  -22.9064   33.3684 O   0  0  0  0  0  0  0  0  0  0  0  0
   -9.9364  -24.8304   32.4848 C   0  0  0  0  0  0  0  0  0  0  0  0
  -10.9397  -25.4972   31.7441 C   0  0  0  0  0  0  0  0  0  0  0  0
  -10.3771  -26.6634   31.2943 C   0  0  0  0  0  0  0  0  0  0  0  0
   -9.1221  -26.6706   31.8081 N   0  0  0  0  0  0  0  0  0  0  0  0
   -8.8387  -25.5875   32.5172 N   0  0  0  0  0  0  0  0  0  0  0  0
  -11.1221  -21.1734   34.9905 C   0  0  0  0  0  0  0  0  0  0  0  0
  -10.4242  -22.0203   36.0586 C   0  0  0  0  0  0  0  0  0  0  0  0
  -10.1303  -20.2339   34.2996 C   0  0  0  0  0  0  0  0  0  0  0  0
  -11.6267  -23.2003   28.2267 C   0  0  0  0  0  0  0  0  0  0  0  0
  -12.4250  -26.2887   25.0185 H   0  0  0  0  0  0  0  0  0  0  0  0
  -13.5206  -25.0141   25.6023 H   0  0  0  0  0  0  0  0  0  0  0  0
  -13.2972  -26.5042   26.5299 H   0  0  0  0  0  0  0  0  0  0  0  0
  -11.1200  -24.3987   25.9717 H   0  0  0  0  0  0  0  0  0  0  0  0
  -10.8931  -25.8939   26.9217 H   0  0  0  0  0  0  0  0  0  0  0  0
  -13.1536  -25.9838   28.8146 H   0  0  0  0  0  0  0  0  0  0  0  0
  -13.2737  -22.9284   31.6228 H   0  0  0  0  0  0  0  0  0  0  0  0
  -13.7111  -21.0315   33.1831 H   0  0  0  0  0  0  0  0  0  0  0  0
  -12.0787  -20.4492   32.7137 H   0  0  0  0  0  0  0  0  0  0  0  0
  -12.8260  -22.3851   34.7114 H   0  0  0  0  0  0  0  0  0  0  0  0
  -11.9955  -24.0083   33.2610 H   0  0  0  0  0  0  0  0  0  0  0  0
  -11.9540  -25.1886   31.5687 H   0  0  0  0  0  0  0  0  0  0  0  0
  -10.7549  -27.4746   30.6916 H   0  0  0  0  0  0  0  0  0  0  0  0
   -8.3843  -27.3668   31.7183 H   0  0  0  0  0  0  0  0  0  0  0  0
  -11.8065  -20.5053   35.5280 H   0  0  0  0  0  0  0  0  0  0  0  0
  -11.1363  -22.6948   36.5432 H   0  0  0  0  0  0  0  0  0  0  0  0
   -9.6198  -22.6351   35.6597 H   0  0  0  0  0  0  0  0  0  0  0  0
   -9.9775  -21.3798   36.8268 H   0  0  0  0  0  0  0  0  0  0  0  0
  -10.6332  -19.3036   34.0209 H   0  0  0  0  0  0  0  0  0  0  0  0
   -9.7052  -20.6534   33.3879 H   0  0  0  0  0  0  0  0  0  0  0  0
   -9.3086  -19.9539   34.9670 H   0  0  0  0  0  0  0  0  0  0  0  0
  -11.0068  -22.5456   27.6350 H   0  0  0  0  0  0  0  0  0  0  0  0
  1  2  1  0
  2  3  1  0
  3  4  1  0
  4  5  2  0
  5  6  1  0
  6  7  1  0
  7  8  2  0
  7  9  1  0
  9 10  1  0
 10 11  1  0
 11 12  1  0
 12 13  1  0
 13 14  2  0
 13 15  1  0
 15 16  1  0
 16 17  2  0
 17 18  1  0
 18 19  1  0
 11 20  1  0
 20 21  1  0
 20 22  1  0
  6 23  2  0
 23  3  1  0
 19 15  2  0
  1 24  1  0
  1 25  1  0
  1 26  1  0
  2 27  1  0
  2 28  1  0
  4 29  1  0
  9 30  1  0
 10 31  1  0
 10 32  1  0
 11 33  1  0
 12 34  1  0
 16 35  1  0
 17 36  1  0
 18 37  1  0
 20 38  1  0
 21 39  1  0
 21 40  1  0
 21 41  1  0
 22 42  1  0
 22 43  1  0
 22 44  1  0
 23 45  1  0
M  END
>  <Energy>  (141) 
106.73433074613889

>  <compound_id>  (141) 
10622

>  <target_id>  (141) 
1

>  <reference_id>  (141) 
35

>  <inspiration_ids>  (141) 
[35, 96]

>  <energy_score>  (141) 
16.075702864362995

>  <distance_score>  (141) 
2.1394159236175083

>  <path>  (141) 
/opt/xchem-fragalysis-2/maxwin/BulkDock/SCRATCH/511017/C10622-P35/C10622-P35.minimised.mol

>  <scratch_subdir>  (141) 
/opt/xchem-fragalysis-2/maxwin/BulkDock/SCRATCH/511017/C10622-P35

>  <fragmenstein_runtime>  (141) 
13.458423852920532

>  <fragmenstein_outcome>  (141) 
too moved

>  <fragmenstein_mode>  (141) 
expansion

>  <fragmenstein_error>  (141) 


$$$$
C10622-P96
     RDKit          3D

 45 46  0  0  0  0  0  0  0  0999 V2000
  -12.9369  -25.2735   26.6797 C   0  0  0  0  0  0  0  0  0  0  0  0
  -11.6208  -24.5829   26.3627 C   0  0  0  0  0  0  0  0  0  0  0  0
  -10.8522  -24.3072   27.5442 N   0  0  0  0  0  0  0  0  0  0  0  0
   -9.9339  -25.1402   28.0885 C   0  0  0  0  0  0  0  0  0  0  0  0
   -9.4567  -24.6499   29.1984 N   0  0  0  0  0  0  0  0  0  0  0  0
  -10.1182  -23.4500   29.4025 C   0  0  0  0  0  0  0  0  0  0  0  0
  -10.0109  -22.7217   30.6822 C   0  0  0  0  0  0  0  0  0  0  0  0
   -9.3413  -23.1567   31.5329 O   0  0  0  0  0  0  0  0  0  0  0  0
  -10.9492  -21.4878   30.6746 N   0  0  0  0  0  0  0  0  0  0  0  0
  -11.3317  -20.5853   31.7501 C   0  0  0  0  0  0  0  0  0  0  0  0
  -12.8442  -20.8584   32.0906 C   0  0  0  0  0  0  0  0  0  0  0  0
  -12.9459  -22.2718   31.9478 N   0  0  0  0  0  0  0  0  0  0  0  0
  -12.1878  -23.3898   32.6388 C   0  0  0  0  0  0  0  0  0  0  0  0
  -11.4092  -23.3519   33.4942 O   0  0  0  0  0  0  0  0  0  0  0  0
  -12.5293  -24.6393   31.9497 C   0  0  0  0  0  0  0  0  0  0  0  0
  -13.7737  -25.0909   31.4759 C   0  0  0  0  0  0  0  0  0  0  0  0
  -13.4798  -26.2130   30.7400 C   0  0  0  0  0  0  0  0  0  0  0  0
  -12.1316  -26.3857   30.8219 N   0  0  0  0  0  0  0  0  0  0  0  0
  -11.5422  -25.4614   31.5599 N   0  0  0  0  0  0  0  0  0  0  0  0
  -13.4106  -20.2390   33.3730 C   0  0  0  0  0  0  0  0  0  0  0  0
  -14.5840  -21.0269   33.9421 C   0  0  0  0  0  0  0  0  0  0  0  0
  -12.3553  -19.9504   34.4232 C   0  0  0  0  0  0  0  0  0  0  0  0
  -10.9357  -23.1893   28.3150 C   0  0  0  0  0  0  0  0  0  0  0  0
  -13.5583  -24.6563   27.3353 H   0  0  0  0  0  0  0  0  0  0  0  0
  -12.7697  -26.2285   27.1888 H   0  0  0  0  0  0  0  0  0  0  0  0
  -13.4984  -25.4702   25.7615 H   0  0  0  0  0  0  0  0  0  0  0  0
  -11.7940  -23.6310   25.8493 H   0  0  0  0  0  0  0  0  0  0  0  0
  -10.9997  -25.2202   25.7298 H   0  0  0  0  0  0  0  0  0  0  0  0
   -9.6485  -26.0776   27.6371 H   0  0  0  0  0  0  0  0  0  0  0  0
  -11.4401  -21.4449   29.7999 H   0  0  0  0  0  0  0  0  0  0  0  0
  -11.1155  -19.5719   31.4420 H   0  0  0  0  0  0  0  0  0  0  0  0
  -10.6825  -20.8342   32.5948 H   0  0  0  0  0  0  0  0  0  0  0  0
  -13.4711  -20.5133   31.2724 H   0  0  0  0  0  0  0  0  0  0  0  0
  -13.4872  -22.6536   31.1854 H   0  0  0  0  0  0  0  0  0  0  0  0
  -14.7449  -24.6462   31.6361 H   0  0  0  0  0  0  0  0  0  0  0  0
  -14.0979  -26.8986   30.1784 H   0  0  0  0  0  0  0  0  0  0  0  0
  -11.5477  -27.0980   30.3960 H   0  0  0  0  0  0  0  0  0  0  0  0
  -13.8302  -19.2641   33.1048 H   0  0  0  0  0  0  0  0  0  0  0  0
  -15.0292  -20.5083   34.7973 H   0  0  0  0  0  0  0  0  0  0  0  0
  -15.3682  -21.1628   33.1899 H   0  0  0  0  0  0  0  0  0  0  0  0
  -14.2531  -22.0093   34.2742 H   0  0  0  0  0  0  0  0  0  0  0  0
  -12.8016  -19.4418   35.2740 H   0  0  0  0  0  0  0  0  0  0  0  0
  -11.6054  -19.2615   34.0296 H   0  0  0  0  0  0  0  0  0  0  0  0
  -11.8622  -20.8612   34.7698 H   0  0  0  0  0  0  0  0  0  0  0  0
  -11.5998  -22.3806   28.0514 H   0  0  0  0  0  0  0  0  0  0  0  0
  1  2  1  0
  2  3  1  0
  3  4  1  0
  4  5  2  0
  5  6  1  0
  6  7  1  0
  7  8  2  0
  7  9  1  0
  9 10  1  0
 10 11  1  0
 11 12  1  0
 12 13  1  0
 13 14  2  0
 13 15  1  0
 15 16  1  0
 16 17  2  0
 17 18  1  0
 18 19  1  0
 11 20  1  0
 20 21  1  0
 20 22  1  0
  6 23  2  0
 23  3  1  0
 19 15  2  0
  1 24  1  0
  1 25  1  0
  1 26  1  0
  2 27  1  0
  2 28  1  0
  4 29  1  0
  9 30  1  0
 10 31  1  0
 10 32  1  0
 11 33  1  0
 12 34  1  0
 16 35  1  0
 17 36  1  0
 18 37  1  0
 20 38  1  0
 21 39  1  0
 21 40  1  0
 21 41  1  0
 22 42  1  0
 22 43  1  0
 22 44  1  0
 23 45  1  0
M  END
>  <Energy>  (142) 
129.34321698609361

>  <compound_id>  (142) 
10622

>  <target_id>  (142) 
1

>  <reference_id>  (142) 
96

>  <inspiration_ids>  (142) 
[35, 96]

>  <energy_score>  (142) 
38.684589104316444

>  <distance_score>  (142) 
2.5175329039600856

>  <path>  (142) 
/opt/xchem-fragalysis-2/maxwin/BulkDock/SCRATCH/511017/C10622-P96/C10622-P96.minimised.mol

>  <scratch_subdir>  (142) 
/opt/xchem-fragalysis-2/maxwin/BulkDock/SCRATCH/511017/C10622-P96

>  <fragmenstein_runtime>  (142) 
11.976932287216187

>  <fragmenstein_outcome>  (142) 
too moved

>  <fragmenstein_mode>  (142) 
expansion

>  <fragmenstein_error>  (142) 


$$$$
C10623-P35
     RDKit          3D

 42 43  0  0  0  0  0  0  0  0999 V2000
  -11.4538  -23.4968   27.1904 C   0  0  0  0  0  0  0  0  0  0  0  0
  -11.9302  -24.1336   28.4293 C   0  0  0  0  0  0  0  0  0  0  0  0
  -11.9807  -25.4998   28.5303 N   0  0  0  0  0  0  0  0  0  0  0  0
  -12.5163  -25.8073   29.7397 C   0  0  0  0  0  0  0  0  0  0  0  0
  -12.7778  -24.7313   30.4351 N   0  0  0  0  0  0  0  0  0  0  0  0
  -12.3482  -23.6673   29.6705 C   0  0  0  0  0  0  0  0  0  0  0  0
  -12.2354  -22.3319   30.2895 C   0  0  0  0  0  0  0  0  0  0  0  0
  -11.7133  -21.4498   29.7341 O   0  0  0  0  0  0  0  0  0  0  0  0
  -12.8079  -22.4142   31.7226 N   0  0  0  0  0  0  0  0  0  0  0  0
  -12.7708  -21.4440   32.8182 C   0  0  0  0  0  0  0  0  0  0  0  0
  -11.9358  -21.8474   34.0415 C   0  0  0  0  0  0  0  0  0  0  0  0
  -11.2933  -23.0563   33.6332 N   0  0  0  0  0  0  0  0  0  0  0  0
  -10.0605  -23.7399   34.1657 C   0  0  0  0  0  0  0  0  0  0  0  0
   -9.3951  -23.4841   35.0751 O   0  0  0  0  0  0  0  0  0  0  0  0
   -9.7782  -24.8775   33.2583 C   0  0  0  0  0  0  0  0  0  0  0  0
   -9.9438  -24.9201   31.8538 C   0  0  0  0  0  0  0  0  0  0  0  0
   -9.4570  -26.1320   31.4501 C   0  0  0  0  0  0  0  0  0  0  0  0
   -8.9427  -26.6917   32.5773 N   0  0  0  0  0  0  0  0  0  0  0  0
   -9.2691  -26.0369   33.6928 N   0  0  0  0  0  0  0  0  0  0  0  0
  -10.9373  -20.7817   34.5877 C   0  0  0  0  0  0  0  0  0  0  0  0
   -9.7717  -20.5022   33.6433 C   0  0  0  0  0  0  0  0  0  0  0  0
  -11.5977  -19.4555   34.9672 C   0  0  0  0  0  0  0  0  0  0  0  0
  -12.1555  -23.6798   26.3704 H   0  0  0  0  0  0  0  0  0  0  0  0
  -10.4849  -23.9078   26.9043 H   0  0  0  0  0  0  0  0  0  0  0  0
  -11.3605  -22.4167   27.3195 H   0  0  0  0  0  0  0  0  0  0  0  0
  -11.7042  -26.1643   27.8221 H   0  0  0  0  0  0  0  0  0  0  0  0
  -12.6933  -26.8238   30.0653 H   0  0  0  0  0  0  0  0  0  0  0  0
  -13.2723  -23.3183   31.8542 H   0  0  0  0  0  0  0  0  0  0  0  0
  -13.7931  -21.1721   33.0906 H   0  0  0  0  0  0  0  0  0  0  0  0
  -12.2324  -20.6181   32.3925 H   0  0  0  0  0  0  0  0  0  0  0  0
  -12.6123  -22.1084   34.8596 H   0  0  0  0  0  0  0  0  0  0  0  0
  -11.5770  -23.4996   32.7694 H   0  0  0  0  0  0  0  0  0  0  0  0
  -10.3190  -24.1470   31.2157 H   0  0  0  0  0  0  0  0  0  0  0  0
   -9.3370  -26.5890   30.4811 H   0  0  0  0  0  0  0  0  0  0  0  0
   -8.3421  -27.5106   32.6736 H   0  0  0  0  0  0  0  0  0  0  0  0
  -10.4960  -21.1797   35.5114 H   0  0  0  0  0  0  0  0  0  0  0  0
   -9.1538  -19.6757   34.0100 H   0  0  0  0  0  0  0  0  0  0  0  0
  -10.1288  -20.2516   32.6472 H   0  0  0  0  0  0  0  0  0  0  0  0
   -9.1089  -21.3630   33.5473 H   0  0  0  0  0  0  0  0  0  0  0  0
  -10.8539  -18.6655   35.1197 H   0  0  0  0  0  0  0  0  0  0  0  0
  -12.1298  -19.5484   35.9098 H   0  0  0  0  0  0  0  0  0  0  0  0
  -12.3070  -19.1082   34.2173 H   0  0  0  0  0  0  0  0  0  0  0  0
  1  2  1  0
  2  3  1  0
  3  4  1  0
  4  5  2  0
  5  6  1  0
  6  7  1  0
  7  8  2  0
  7  9  1  0
  9 10  1  0
 10 11  1  0
 11 12  1  0
 12 13  1  0
 13 14  2  0
 13 15  1  0
 15 16  1  0
 16 17  2  0
 17 18  1  0
 18 19  1  0
 11 20  1  0
 20 21  1  0
 20 22  1  0
  6  2  2  0
 19 15  2  0
  1 23  1  0
  1 24  1  0
  1 25  1  0
  3 26  1  0
  4 27  1  0
  9 28  1  0
 10 29  1  0
 10 30  1  0
 11 31  1  0
 12 32  1  0
 16 33  1  0
 17 34  1  0
 18 35  1  0
 20 36  1  0
 21 37  1  0
 21 38  1  0
 21 39  1  0
 22 40  1  0
 22 41  1  0
 22 42  1  0
M  END
>  <Energy>  (143) 
108.72099429083889

>  <compound_id>  (143) 
10623

>  <target_id>  (143) 
1

>  <reference_id>  (143) 
35

>  <inspiration_ids>  (143) 
[35, 96]

>  <energy_score>  (143) 
7.9484202013923095

>  <distance_score>  (143) 
2.360429839202154

>  <path>  (143) 
/opt/xchem-fragalysis-2/maxwin/BulkDock/SCRATCH/511017/C10623-P35/C10623-P35.minimised.mol

>  <scratch_subdir>  (143) 
/opt/xchem-fragalysis-2/maxwin/BulkDock/SCRATCH/511017/C10623-P35

>  <fragmenstein_runtime>  (143) 
9.799513339996338

>  <fragmenstein_outcome>  (143) 
too moved

>  <fragmenstein_mode>  (143) 
expansion

>  <fragmenstein_error>  (143) 


$$$$
C10623-P96
     RDKit          3D

 42 43  0  0  0  0  0  0  0  0999 V2000
  -10.9699  -23.6970   26.5159 C   0  0  0  0  0  0  0  0  0  0  0  0
  -10.8171  -24.7344   27.5516 C   0  0  0  0  0  0  0  0  0  0  0  0
  -11.4371  -25.9435   27.4608 N   0  0  0  0  0  0  0  0  0  0  0  0
  -11.2712  -26.5957   28.6433 C   0  0  0  0  0  0  0  0  0  0  0  0
  -10.5509  -25.9021   29.4797 N   0  0  0  0  0  0  0  0  0  0  0  0
  -10.2052  -24.7533   28.7910 C   0  0  0  0  0  0  0  0  0  0  0  0
   -9.5240  -23.6633   29.4704 C   0  0  0  0  0  0  0  0  0  0  0  0
   -9.1029  -22.7344   28.9117 O   0  0  0  0  0  0  0  0  0  0  0  0
   -9.5972  -23.9730   30.9706 N   0  0  0  0  0  0  0  0  0  0  0  0
   -9.2534  -23.1615   32.1141 C   0  0  0  0  0  0  0  0  0  0  0  0
  -10.5546  -22.5353   32.7307 C   0  0  0  0  0  0  0  0  0  0  0  0
  -11.6552  -23.3997   32.3852 N   0  0  0  0  0  0  0  0  0  0  0  0
  -12.4935  -23.4837   31.1013 C   0  0  0  0  0  0  0  0  0  0  0  0
  -12.4813  -22.8172   30.1461 O   0  0  0  0  0  0  0  0  0  0  0  0
  -13.3126  -24.6791   31.2147 C   0  0  0  0  0  0  0  0  0  0  0  0
  -13.8282  -25.4117   30.1392 C   0  0  0  0  0  0  0  0  0  0  0  0
  -14.1890  -26.6219   30.6659 C   0  0  0  0  0  0  0  0  0  0  0  0
  -13.8832  -26.5609   31.9866 N   0  0  0  0  0  0  0  0  0  0  0  0
  -13.3851  -25.3812   32.3577 N   0  0  0  0  0  0  0  0  0  0  0  0
  -10.7890  -21.0463   32.4837 C   0  0  0  0  0  0  0  0  0  0  0  0
  -11.0712  -20.6250   31.0541 C   0  0  0  0  0  0  0  0  0  0  0  0
  -11.8810  -20.5071   33.4159 C   0  0  0  0  0  0  0  0  0  0  0  0
  -11.9765  -23.7242   26.0855 H   0  0  0  0  0  0  0  0  0  0  0  0
  -10.2507  -23.8324   25.7067 H   0  0  0  0  0  0  0  0  0  0  0  0
  -10.8388  -22.6995   26.9423 H   0  0  0  0  0  0  0  0  0  0  0  0
  -11.9430  -26.2987   26.6595 H   0  0  0  0  0  0  0  0  0  0  0  0
  -11.7055  -27.5670   28.8370 H   0  0  0  0  0  0  0  0  0  0  0  0
  -10.1046  -24.8433   31.1130 H   0  0  0  0  0  0  0  0  0  0  0  0
   -8.8297  -23.8622   32.8438 H   0  0  0  0  0  0  0  0  0  0  0  0
   -8.4872  -22.4347   31.8930 H   0  0  0  0  0  0  0  0  0  0  0  0
  -10.4345  -22.6530   33.8166 H   0  0  0  0  0  0  0  0  0  0  0  0
  -11.9822  -24.0868   33.0453 H   0  0  0  0  0  0  0  0  0  0  0  0
  -13.8257  -25.1264   29.0969 H   0  0  0  0  0  0  0  0  0  0  0  0
  -14.5990  -27.5168   30.2201 H   0  0  0  0  0  0  0  0  0  0  0  0
  -14.0152  -27.2807   32.6907 H   0  0  0  0  0  0  0  0  0  0  0  0
   -9.8509  -20.5669   32.7540 H   0  0  0  0  0  0  0  0  0  0  0  0
  -12.1410  -20.5688   30.8504 H   0  0  0  0  0  0  0  0  0  0  0  0
  -10.6309  -21.2877   30.3162 H   0  0  0  0  0  0  0  0  0  0  0  0
  -10.6418  -19.6405   30.8769 H   0  0  0  0  0  0  0  0  0  0  0  0
  -11.6917  -20.7887   34.4567 H   0  0  0  0  0  0  0  0  0  0  0  0
  -12.8695  -20.8902   33.1411 H   0  0  0  0  0  0  0  0  0  0  0  0
  -11.9163  -19.4152   33.3764 H   0  0  0  0  0  0  0  0  0  0  0  0
  1  2  1  0
  2  3  1  0
  3  4  1  0
  4  5  2  0
  5  6  1  0
  6  7  1  0
  7  8  2  0
  7  9  1  0
  9 10  1  0
 10 11  1  0
 11 12  1  0
 12 13  1  0
 13 14  2  0
 13 15  1  0
 15 16  1  0
 16 17  2  0
 17 18  1  0
 18 19  1  0
 11 20  1  0
 20 21  1  0
 20 22  1  0
  6  2  2  0
 19 15  2  0
  1 23  1  0
  1 24  1  0
  1 25  1  0
  3 26  1  0
  4 27  1  0
  9 28  1  0
 10 29  1  0
 10 30  1  0
 11 31  1  0
 12 32  1  0
 16 33  1  0
 17 34  1  0
 18 35  1  0
 20 36  1  0
 21 37  1  0
 21 38  1  0
 21 39  1  0
 22 40  1  0
 22 41  1  0
 22 42  1  0
M  END
>  <Energy>  (144) 
96.198916443055694

>  <compound_id>  (144) 
10623

>  <target_id>  (144) 
1

>  <reference_id>  (144) 
96

>  <inspiration_ids>  (144) 
[35, 96]

>  <energy_score>  (144) 
-4.57365764638979

>  <distance_score>  (144) 
3.5882607363111574

>  <path>  (144) 
/opt/xchem-fragalysis-2/maxwin/BulkDock/SCRATCH/511017/C10623-P96/C10623-P96.minimised.mol

>  <scratch_subdir>  (144) 
/opt/xchem-fragalysis-2/maxwin/BulkDock/SCRATCH/511017/C10623-P96

>  <fragmenstein_runtime>  (144) 
9.813366889953613

>  <fragmenstein_outcome>  (144) 
too moved

>  <fragmenstein_mode>  (144) 
expansion

>  <fragmenstein_error>  (144) 


$$$$
C10624-P35
     RDKit          3D

 48 49  0  0  0  0  0  0  0  0999 V2000
   -9.7350  -20.2161   33.8503 C   0  0  0  0  0  0  0  0  0  0  0  0
  -10.7340  -20.5284   34.9525 C   0  0  0  0  0  0  0  0  0  0  0  0
   -9.9813  -20.7707   36.2673 C   0  0  0  0  0  0  0  0  0  0  0  0
  -11.7577  -21.6519   34.5912 C   0  0  0  0  0  0  0  0  0  0  0  0
  -12.8736  -21.1530   33.6686 C   0  0  0  0  0  0  0  0  0  0  0  0
  -12.9441  -21.8637   32.3962 N   0  0  0  0  0  0  0  0  0  0  0  0
  -11.9959  -21.8391   31.1828 C   0  0  0  0  0  0  0  0  0  0  0  0
  -11.0520  -21.1910   30.9763 O   0  0  0  0  0  0  0  0  0  0  0  0
  -12.3799  -22.8905   30.2545 C   0  0  0  0  0  0  0  0  0  0  0  0
  -11.6828  -23.3112   29.1370 C   0  0  0  0  0  0  0  0  0  0  0  0
  -12.2313  -24.5157   28.8394 N   0  0  0  0  0  0  0  0  0  0  0  0
  -11.8418  -25.4316   27.8008 C   0  0  0  0  0  0  0  0  0  0  0  0
  -11.6099  -24.7260   26.4668 C   0  0  0  0  0  0  0  0  0  0  0  0
  -10.7087  -26.3585   28.1989 C   0  0  0  0  0  0  0  0  0  0  0  0
  -13.3009  -24.7079   29.6566 C   0  0  0  0  0  0  0  0  0  0  0  0
  -13.4333  -23.7273   30.5077 N   0  0  0  0  0  0  0  0  0  0  0  0
  -11.1705  -22.7929   33.9619 N   0  0  0  0  0  0  0  0  0  0  0  0
   -9.9752  -23.6116   34.3463 C   0  0  0  0  0  0  0  0  0  0  0  0
   -9.2104  -23.4646   35.1942 O   0  0  0  0  0  0  0  0  0  0  0  0
   -9.8398  -24.7532   33.4030 C   0  0  0  0  0  0  0  0  0  0  0  0
  -10.1020  -24.7915   32.0183 C   0  0  0  0  0  0  0  0  0  0  0  0
   -9.5990  -25.9847   31.5755 C   0  0  0  0  0  0  0  0  0  0  0  0
   -9.0510  -26.5735   32.6695 N   0  0  0  0  0  0  0  0  0  0  0  0
   -9.3255  -25.9281   33.7992 N   0  0  0  0  0  0  0  0  0  0  0  0
   -9.0454  -21.0441   33.6687 H   0  0  0  0  0  0  0  0  0  0  0  0
  -10.2539  -19.9981   32.9231 H   0  0  0  0  0  0  0  0  0  0  0  0
   -9.1363  -19.3370   34.1125 H   0  0  0  0  0  0  0  0  0  0  0  0
  -11.3175  -19.6125   35.1247 H   0  0  0  0  0  0  0  0  0  0  0  0
   -8.9000  -20.7045   36.1469 H   0  0  0  0  0  0  0  0  0  0  0  0
  -10.2172  -21.7364   36.7204 H   0  0  0  0  0  0  0  0  0  0  0  0
  -10.2395  -19.9897   36.9914 H   0  0  0  0  0  0  0  0  0  0  0  0
  -12.2144  -22.0085   35.5202 H   0  0  0  0  0  0  0  0  0  0  0  0
  -13.8553  -21.2256   34.1396 H   0  0  0  0  0  0  0  0  0  0  0  0
  -12.6616  -20.1105   33.4993 H   0  0  0  0  0  0  0  0  0  0  0  0
  -13.7228  -22.5005   32.2083 H   0  0  0  0  0  0  0  0  0  0  0  0
  -10.8225  -22.9007   28.6277 H   0  0  0  0  0  0  0  0  0  0  0  0
  -12.7169  -26.0762   27.6320 H   0  0  0  0  0  0  0  0  0  0  0  0
  -12.4455  -24.0610   26.2204 H   0  0  0  0  0  0  0  0  0  0  0  0
  -10.7005  -24.1217   26.4876 H   0  0  0  0  0  0  0  0  0  0  0  0
  -11.5263  -25.4563   25.6564 H   0  0  0  0  0  0  0  0  0  0  0  0
  -10.4326  -27.0241   27.3752 H   0  0  0  0  0  0  0  0  0  0  0  0
   -9.8271  -25.7951   28.5071 H   0  0  0  0  0  0  0  0  0  0  0  0
  -11.0146  -26.9929   29.0375 H   0  0  0  0  0  0  0  0  0  0  0  0
  -13.9459  -25.5759   29.6015 H   0  0  0  0  0  0  0  0  0  0  0  0
  -11.6710  -23.2584   33.2131 H   0  0  0  0  0  0  0  0  0  0  0  0
  -10.4866  -24.0050   31.4119 H   0  0  0  0  0  0  0  0  0  0  0  0
   -9.4773  -26.4251   30.6038 H   0  0  0  0  0  0  0  0  0  0  0  0
   -8.4543  -27.3986   32.7286 H   0  0  0  0  0  0  0  0  0  0  0  0
  1  2  1  0
  2  3  1  0
  2  4  1  0
  4  5  1  0
  5  6  1  0
  6  7  1  0
  7  8  2  0
  7  9  1  0
  9 10  2  0
 10 11  1  0
 11 12  1  0
 12 13  1  0
 12 14  1  0
 11 15  1  0
 15 16  2  0
  4 17  1  0
 17 18  1  0
 18 19  2  0
 18 20  1  0
 20 21  1  0
 21 22  2  0
 22 23  1  0
 23 24  1  0
 16  9  1  0
 24 20  2  0
  1 25  1  0
  1 26  1  0
  1 27  1  0
  2 28  1  0
  3 29  1  0
  3 30  1  0
  3 31  1  0
  4 32  1  0
  5 33  1  0
  5 34  1  0
  6 35  1  0
 10 36  1  0
 12 37  1  0
 13 38  1  0
 13 39  1  0
 13 40  1  0
 14 41  1  0
 14 42  1  0
 14 43  1  0
 15 44  1  0
 17 45  1  0
 21 46  1  0
 22 47  1  0
 23 48  1  0
M  END
>  <Energy>  (145) 
112.11462179076118

>  <compound_id>  (145) 
10624

>  <target_id>  (145) 
1

>  <reference_id>  (145) 
35

>  <inspiration_ids>  (145) 
[35, 96]

>  <energy_score>  (145) 
15.174672275943237

>  <distance_score>  (145) 
3.2240167594316205

>  <path>  (145) 
/opt/xchem-fragalysis-2/maxwin/BulkDock/SCRATCH/511017/C10624-P35/C10624-P35.minimised.mol

>  <scratch_subdir>  (145) 
/opt/xchem-fragalysis-2/maxwin/BulkDock/SCRATCH/511017/C10624-P35

>  <fragmenstein_runtime>  (145) 
14.9751136302948

>  <fragmenstein_outcome>  (145) 
too moved

>  <fragmenstein_mode>  (145) 
expansion

>  <fragmenstein_error>  (145) 


$$$$
C10624-P96
     RDKit          3D

 48 49  0  0  0  0  0  0  0  0999 V2000
  -15.8295  -19.2841   34.6561 C   0  0  0  0  0  0  0  0  0  0  0  0
  -14.7159  -19.8699   33.7614 C   0  0  0  0  0  0  0  0  0  0  0  0
  -15.1839  -19.6071   32.3290 C   0  0  0  0  0  0  0  0  0  0  0  0
  -14.5288  -21.3619   34.0976 C   0  0  0  0  0  0  0  0  0  0  0  0
  -15.4038  -22.3496   33.2641 C   0  0  0  0  0  0  0  0  0  0  0  0
  -14.6570  -22.8779   32.1579 N   0  0  0  0  0  0  0  0  0  0  0  0
  -14.2832  -24.3147   31.8097 C   0  0  0  0  0  0  0  0  0  0  0  0
  -14.5825  -25.3166   32.3187 O   0  0  0  0  0  0  0  0  0  0  0  0
  -13.3217  -24.2576   30.6950 C   0  0  0  0  0  0  0  0  0  0  0  0
  -12.5515  -25.3011   30.2368 C   0  0  0  0  0  0  0  0  0  0  0  0
  -11.4783  -24.6734   29.6626 N   0  0  0  0  0  0  0  0  0  0  0  0
  -10.1442  -25.2369   29.7456 C   0  0  0  0  0  0  0  0  0  0  0  0
   -9.0558  -24.3683   29.1531 C   0  0  0  0  0  0  0  0  0  0  0  0
   -9.8583  -25.6162   31.1975 C   0  0  0  0  0  0  0  0  0  0  0  0
  -11.8347  -23.3871   29.4010 C   0  0  0  0  0  0  0  0  0  0  0  0
  -12.9377  -23.0876   30.0464 N   0  0  0  0  0  0  0  0  0  0  0  0
  -13.1257  -21.7190   33.9904 N   0  0  0  0  0  0  0  0  0  0  0  0
  -12.1086  -21.4288   32.8876 C   0  0  0  0  0  0  0  0  0  0  0  0
  -12.2066  -20.7905   31.9198 O   0  0  0  0  0  0  0  0  0  0  0  0
  -10.8717  -22.1868   33.1124 C   0  0  0  0  0  0  0  0  0  0  0  0
   -9.8878  -22.3480   32.1292 C   0  0  0  0  0  0  0  0  0  0  0  0
   -8.8736  -23.0642   32.7004 C   0  0  0  0  0  0  0  0  0  0  0  0
   -9.3277  -23.3899   33.9375 N   0  0  0  0  0  0  0  0  0  0  0  0
  -10.5621  -22.9194   34.1906 N   0  0  0  0  0  0  0  0  0  0  0  0
  -15.6753  -19.5141   35.7104 H   0  0  0  0  0  0  0  0  0  0  0  0
  -15.8751  -18.1946   34.5507 H   0  0  0  0  0  0  0  0  0  0  0  0
  -16.8120  -19.6897   34.3875 H   0  0  0  0  0  0  0  0  0  0  0  0
  -13.7955  -19.3092   33.9646 H   0  0  0  0  0  0  0  0  0  0  0  0
  -15.2532  -18.5361   32.1517 H   0  0  0  0  0  0  0  0  0  0  0  0
  -14.5161  -20.0464   31.5934 H   0  0  0  0  0  0  0  0  0  0  0  0
  -16.1909  -19.9878   32.1322 H   0  0  0  0  0  0  0  0  0  0  0  0
  -14.7980  -21.4776   35.1432 H   0  0  0  0  0  0  0  0  0  0  0  0
  -15.7244  -23.2098   33.8507 H   0  0  0  0  0  0  0  0  0  0  0  0
  -16.3306  -21.9015   32.9012 H   0  0  0  0  0  0  0  0  0  0  0  0
  -14.2826  -22.2466   31.4460 H   0  0  0  0  0  0  0  0  0  0  0  0
  -12.5459  -26.3468   30.5123 H   0  0  0  0  0  0  0  0  0  0  0  0
  -10.1987  -26.1485   29.1405 H   0  0  0  0  0  0  0  0  0  0  0  0
   -8.9007  -23.4467   29.7130 H   0  0  0  0  0  0  0  0  0  0  0  0
   -9.3045  -24.0924   28.1240 H   0  0  0  0  0  0  0  0  0  0  0  0
   -8.1114  -24.9161   29.1470 H   0  0  0  0  0  0  0  0  0  0  0  0
   -8.7914  -25.7024   31.4106 H   0  0  0  0  0  0  0  0  0  0  0  0
  -10.3035  -24.9106   31.8920 H   0  0  0  0  0  0  0  0  0  0  0  0
  -10.3573  -26.5528   31.4563 H   0  0  0  0  0  0  0  0  0  0  0  0
  -11.2398  -22.6906   28.8229 H   0  0  0  0  0  0  0  0  0  0  0  0
  -12.7270  -22.3897   34.6541 H   0  0  0  0  0  0  0  0  0  0  0  0
   -9.9874  -21.9632   31.1338 H   0  0  0  0  0  0  0  0  0  0  0  0
   -7.9059  -23.3931   32.3488 H   0  0  0  0  0  0  0  0  0  0  0  0
   -8.8425  -23.9074   34.6644 H   0  0  0  0  0  0  0  0  0  0  0  0
  1  2  1  0
  2  3  1  0
  2  4  1  0
  4  5  1  0
  5  6  1  0
  6  7  1  0
  7  8  2  0
  7  9  1  0
  9 10  2  0
 10 11  1  0
 11 12  1  0
 12 13  1  0
 12 14  1  0
 11 15  1  0
 15 16  2  0
  4 17  1  0
 17 18  1  0
 18 19  2  0
 18 20  1  0
 20 21  1  0
 21 22  2  0
 22 23  1  0
 23 24  1  0
 16  9  1  0
 24 20  2  0
  1 25  1  0
  1 26  1  0
  1 27  1  0
  2 28  1  0
  3 29  1  0
  3 30  1  0
  3 31  1  0
  4 32  1  0
  5 33  1  0
  5 34  1  0
  6 35  1  0
 10 36  1  0
 12 37  1  0
 13 38  1  0
 13 39  1  0
 13 40  1  0
 14 41  1  0
 14 42  1  0
 14 43  1  0
 15 44  1  0
 17 45  1  0
 21 46  1  0
 22 47  1  0
 23 48  1  0
M  END
>  <Energy>  (146) 
107.36056418769176

>  <compound_id>  (146) 
10624

>  <target_id>  (146) 
1

>  <reference_id>  (146) 
96

>  <inspiration_ids>  (146) 
[35, 96]

>  <energy_score>  (146) 
10.420614672874365

>  <distance_score>  (146) 
3.033211382504392

>  <path>  (146) 
/opt/xchem-fragalysis-2/maxwin/BulkDock/SCRATCH/511017/C10624-P96/C10624-P96.minimised.mol

>  <scratch_subdir>  (146) 
/opt/xchem-fragalysis-2/maxwin/BulkDock/SCRATCH/511017/C10624-P96

>  <fragmenstein_runtime>  (146) 
8.041571617126465

>  <fragmenstein_outcome>  (146) 
too moved

>  <fragmenstein_mode>  (146) 
expansion

>  <fragmenstein_error>  (146) 


$$$$
C10625-P35
     RDKit          3D

 45 46  0  0  0  0  0  0  0  0999 V2000
  -14.1853  -25.7923   25.7746 C   0  0  0  0  0  0  0  0  0  0  0  0
  -12.8381  -25.0865   25.7650 C   0  0  0  0  0  0  0  0  0  0  0  0
  -12.2606  -24.9920   27.1091 C   0  0  0  0  0  0  0  0  0  0  0  0
  -12.6307  -24.1852   28.0803 N   0  0  0  0  0  0  0  0  0  0  0  0
  -11.7128  -24.4137   29.0591 C   0  0  0  0  0  0  0  0  0  0  0  0
  -11.5530  -23.7046   30.3026 C   0  0  0  0  0  0  0  0  0  0  0  0
  -10.5288  -23.8678   30.8023 O   0  0  0  0  0  0  0  0  0  0  0  0
  -12.7224  -22.8492   30.7242 N   0  0  0  0  0  0  0  0  0  0  0  0
  -12.8583  -21.9151   31.8248 C   0  0  0  0  0  0  0  0  0  0  0  0
  -12.4851  -22.4113   33.2311 C   0  0  0  0  0  0  0  0  0  0  0  0
  -11.7773  -23.6511   33.1077 N   0  0  0  0  0  0  0  0  0  0  0  0
  -10.3010  -23.9782   33.3277 C   0  0  0  0  0  0  0  0  0  0  0  0
   -9.4327  -23.3131   33.7188 O   0  0  0  0  0  0  0  0  0  0  0  0
  -10.0426  -25.3856   32.9171 C   0  0  0  0  0  0  0  0  0  0  0  0
  -10.7713  -26.2321   32.0337 C   0  0  0  0  0  0  0  0  0  0  0  0
   -9.8881  -27.2073   31.6591 C   0  0  0  0  0  0  0  0  0  0  0  0
   -8.7854  -26.9967   32.4258 N   0  0  0  0  0  0  0  0  0  0  0  0
   -8.9360  -26.0191   33.3090 N   0  0  0  0  0  0  0  0  0  0  0  0
  -11.6834  -21.4269   34.1368 C   0  0  0  0  0  0  0  0  0  0  0  0
  -11.3950  -22.0190   35.5217 C   0  0  0  0  0  0  0  0  0  0  0  0
  -12.3625  -20.0861   34.3665 C   0  0  0  0  0  0  0  0  0  0  0  0
  -10.8079  -25.3881   28.6803 C   0  0  0  0  0  0  0  0  0  0  0  0
  -11.2096  -25.7893   27.4642 N   0  0  0  0  0  0  0  0  0  0  0  0
  -14.9139  -25.2583   26.3924 H   0  0  0  0  0  0  0  0  0  0  0  0
  -14.0954  -26.8092   26.1719 H   0  0  0  0  0  0  0  0  0  0  0  0
  -14.5868  -25.8596   24.7585 H   0  0  0  0  0  0  0  0  0  0  0  0
  -12.1498  -25.6563   25.1332 H   0  0  0  0  0  0  0  0  0  0  0  0
  -12.9467  -24.0818   25.3431 H   0  0  0  0  0  0  0  0  0  0  0  0
  -13.4366  -22.8764   30.0055 H   0  0  0  0  0  0  0  0  0  0  0  0
  -12.1458  -21.1343   31.5740 H   0  0  0  0  0  0  0  0  0  0  0  0
  -13.8908  -21.5616   31.8335 H   0  0  0  0  0  0  0  0  0  0  0  0
  -13.4361  -22.6363   33.7213 H   0  0  0  0  0  0  0  0  0  0  0  0
  -12.2733  -24.4938   32.8326 H   0  0  0  0  0  0  0  0  0  0  0  0
  -11.7366  -26.0730   31.5812 H   0  0  0  0  0  0  0  0  0  0  0  0
   -9.9316  -28.0038   30.9316 H   0  0  0  0  0  0  0  0  0  0  0  0
   -7.9164  -27.5306   32.4674 H   0  0  0  0  0  0  0  0  0  0  0  0
  -10.7178  -21.2145   33.6599 H   0  0  0  0  0  0  0  0  0  0  0  0
  -12.3320  -22.2186   36.0365 H   0  0  0  0  0  0  0  0  0  0  0  0
  -10.7828  -21.3256   36.1070 H   0  0  0  0  0  0  0  0  0  0  0  0
  -10.8495  -22.9583   35.5245 H   0  0  0  0  0  0  0  0  0  0  0  0
  -11.9829  -19.3747   33.6430 H   0  0  0  0  0  0  0  0  0  0  0  0
  -12.1096  -19.6471   35.3376 H   0  0  0  0  0  0  0  0  0  0  0  0
  -13.4508  -20.1555   34.2904 H   0  0  0  0  0  0  0  0  0  0  0  0
   -9.9342  -25.7880   29.1766 H   0  0  0  0  0  0  0  0  0  0  0  0
  -10.7722  -26.5015   26.8978 H   0  0  0  0  0  0  0  0  0  0  0  0
  1  2  1  0
  2  3  1  0
  3  4  2  0
  4  5  1  0
  5  6  1  0
  6  7  2  0
  6  8  1  0
  8  9  1  0
  9 10  1  0
 10 11  1  0
 11 12  1  0
 12 13  2  0
 12 14  1  0
 14 15  1  0
 15 16  2  0
 16 17  1  0
 17 18  1  0
 10 19  1  0
 19 20  1  0
 19 21  1  0
  5 22  2  0
 22 23  1  0
 23  3  1  0
 18 14  2  0
  1 24  1  0
  1 25  1  0
  1 26  1  0
  2 27  1  0
  2 28  1  0
  8 29  1  0
  9 30  1  0
  9 31  1  0
 10 32  1  0
 11 33  1  0
 15 34  1  0
 16 35  1  0
 17 36  1  0
 19 37  1  0
 20 38  1  0
 20 39  1  0
 20 40  1  0
 21 41  1  0
 21 42  1  0
 21 43  1  0
 22 44  1  0
 23 45  1  0
M  END
>  <Energy>  (147) 
128.8859958225093

>  <compound_id>  (147) 
10625

>  <target_id>  (147) 
1

>  <reference_id>  (147) 
35

>  <inspiration_ids>  (147) 
[35, 96]

>  <energy_score>  (147) 
26.92028615992922

>  <distance_score>  (147) 
2.4805325779299827

>  <path>  (147) 
/opt/xchem-fragalysis-2/maxwin/BulkDock/SCRATCH/511017/C10625-P35/C10625-P35.minimised.mol

>  <scratch_subdir>  (147) 
/opt/xchem-fragalysis-2/maxwin/BulkDock/SCRATCH/511017/C10625-P35

>  <fragmenstein_runtime>  (147) 
8.915913343429565

>  <fragmenstein_outcome>  (147) 
too moved

>  <fragmenstein_mode>  (147) 
expansion

>  <fragmenstein_error>  (147) 


$$$$
C10625-P96
     RDKit          3D

 45 46  0  0  0  0  0  0  0  0999 V2000
  -11.6148  -22.9856   25.4189 C   0  0  0  0  0  0  0  0  0  0  0  0
  -10.7459  -23.8997   26.2541 C   0  0  0  0  0  0  0  0  0  0  0  0
  -11.2303  -23.8850   27.6429 C   0  0  0  0  0  0  0  0  0  0  0  0
  -11.1941  -22.8589   28.4674 N   0  0  0  0  0  0  0  0  0  0  0  0
  -12.1019  -23.1712   29.4425 C   0  0  0  0  0  0  0  0  0  0  0  0
  -12.4085  -22.3458   30.6022 C   0  0  0  0  0  0  0  0  0  0  0  0
  -13.3445  -22.5989   31.2437 O   0  0  0  0  0  0  0  0  0  0  0  0
  -11.3075  -21.2925   30.8168 N   0  0  0  0  0  0  0  0  0  0  0  0
  -11.0690  -20.3674   31.9481 C   0  0  0  0  0  0  0  0  0  0  0  0
  -11.4895  -20.9755   33.3232 C   0  0  0  0  0  0  0  0  0  0  0  0
  -10.9424  -22.2803   33.1410 N   0  0  0  0  0  0  0  0  0  0  0  0
   -9.9990  -23.0953   34.0259 C   0  0  0  0  0  0  0  0  0  0  0  0
   -9.5747  -22.8698   35.0837 O   0  0  0  0  0  0  0  0  0  0  0  0
   -9.5853  -24.2635   33.2463 C   0  0  0  0  0  0  0  0  0  0  0  0
   -9.7164  -24.3965   31.8392 C   0  0  0  0  0  0  0  0  0  0  0  0
   -8.8509  -25.3747   31.4941 C   0  0  0  0  0  0  0  0  0  0  0  0
   -8.2537  -25.7624   32.6477 N   0  0  0  0  0  0  0  0  0  0  0  0
   -8.7827  -25.2179   33.7417 N   0  0  0  0  0  0  0  0  0  0  0  0
  -12.9923  -20.7132   33.5023 C   0  0  0  0  0  0  0  0  0  0  0  0
  -13.1461  -19.4552   34.3614 C   0  0  0  0  0  0  0  0  0  0  0  0
  -13.7340  -21.8528   34.1406 C   0  0  0  0  0  0  0  0  0  0  0  0
  -12.5134  -24.4833   29.3045 C   0  0  0  0  0  0  0  0  0  0  0  0
  -11.9155  -24.9386   28.1738 N   0  0  0  0  0  0  0  0  0  0  0  0
  -11.6112  -22.0046   25.8689 H   0  0  0  0  0  0  0  0  0  0  0  0
  -12.6556  -23.3228   25.3743 H   0  0  0  0  0  0  0  0  0  0  0  0
  -11.2169  -22.8482   24.4117 H   0  0  0  0  0  0  0  0  0  0  0  0
  -10.7154  -24.9133   25.8476 H   0  0  0  0  0  0  0  0  0  0  0  0
   -9.7394  -23.4963   26.2556 H   0  0  0  0  0  0  0  0  0  0  0  0
  -10.5915  -21.3993   30.1022 H   0  0  0  0  0  0  0  0  0  0  0  0
   -9.9937  -20.1908   31.9534 H   0  0  0  0  0  0  0  0  0  0  0  0
  -11.5250  -19.4234   31.7730 H   0  0  0  0  0  0  0  0  0  0  0  0
  -10.9541  -20.5022   34.1355 H   0  0  0  0  0  0  0  0  0  0  0  0
  -11.1687  -22.8046   32.3258 H   0  0  0  0  0  0  0  0  0  0  0  0
  -10.1828  -23.7748   31.1020 H   0  0  0  0  0  0  0  0  0  0  0  0
   -8.5308  -25.7003   30.5208 H   0  0  0  0  0  0  0  0  0  0  0  0
   -7.4405  -26.3578   32.7605 H   0  0  0  0  0  0  0  0  0  0  0  0
  -13.4807  -20.4936   32.5464 H   0  0  0  0  0  0  0  0  0  0  0  0
  -14.1962  -19.1684   34.4701 H   0  0  0  0  0  0  0  0  0  0  0  0
  -12.5968  -18.6098   33.9501 H   0  0  0  0  0  0  0  0  0  0  0  0
  -12.7132  -19.6208   35.3457 H   0  0  0  0  0  0  0  0  0  0  0  0
  -14.7166  -21.5300   34.4994 H   0  0  0  0  0  0  0  0  0  0  0  0
  -13.1490  -22.2425   34.9688 H   0  0  0  0  0  0  0  0  0  0  0  0
  -13.9019  -22.6788   33.4503 H   0  0  0  0  0  0  0  0  0  0  0  0
  -13.1692  -25.0962   29.9071 H   0  0  0  0  0  0  0  0  0  0  0  0
  -12.0790  -25.8291   27.7228 H   0  0  0  0  0  0  0  0  0  0  0  0
  1  2  1  0
  2  3  1  0
  3  4  2  0
  4  5  1  0
  5  6  1  0
  6  7  2  0
  6  8  1  0
  8  9  1  0
  9 10  1  0
 10 11  1  0
 11 12  1  0
 12 13  2  0
 12 14  1  0
 14 15  1  0
 15 16  2  0
 16 17  1  0
 17 18  1  0
 10 19  1  0
 19 20  1  0
 19 21  1  0
  5 22  2  0
 22 23  1  0
 23  3  1  0
 18 14  2  0
  1 24  1  0
  1 25  1  0
  1 26  1  0
  2 27  1  0
  2 28  1  0
  8 29  1  0
  9 30  1  0
  9 31  1  0
 10 32  1  0
 11 33  1  0
 15 34  1  0
 16 35  1  0
 17 36  1  0
 19 37  1  0
 20 38  1  0
 20 39  1  0
 20 40  1  0
 21 41  1  0
 21 42  1  0
 21 43  1  0
 22 44  1  0
 23 45  1  0
M  END
>  <Energy>  (148) 
124.10127277566004

>  <compound_id>  (148) 
10625

>  <target_id>  (148) 
1

>  <reference_id>  (148) 
96

>  <inspiration_ids>  (148) 
[35, 96]

>  <energy_score>  (148) 
22.135563113083435

>  <distance_score>  (148) 
1.9458694216540742

>  <path>  (148) 
/opt/xchem-fragalysis-2/maxwin/BulkDock/SCRATCH/511017/C10625-P96/C10625-P96.minimised.mol

>  <scratch_subdir>  (148) 
/opt/xchem-fragalysis-2/maxwin/BulkDock/SCRATCH/511017/C10625-P96

>  <fragmenstein_runtime>  (148) 
7.8525426387786865

>  <fragmenstein_outcome>  (148) 
too moved

>  <fragmenstein_mode>  (148) 
expansion

>  <fragmenstein_error>  (148) 


$$$$
C10626-P35
     RDKit          3D

 42 43  0  0  0  0  0  0  0  0999 V2000
  -12.1196  -23.9605   25.3831 C   0  0  0  0  0  0  0  0  0  0  0  0
  -11.8830  -24.4969   26.7092 C   0  0  0  0  0  0  0  0  0  0  0  0
  -12.0247  -23.8143   27.8079 N   0  0  0  0  0  0  0  0  0  0  0  0
  -11.3587  -24.5659   28.7231 C   0  0  0  0  0  0  0  0  0  0  0  0
  -11.0120  -24.0246   29.9888 C   0  0  0  0  0  0  0  0  0  0  0  0
  -10.1396  -24.4749   30.6002 O   0  0  0  0  0  0  0  0  0  0  0  0
  -11.9098  -22.8349   30.2816 N   0  0  0  0  0  0  0  0  0  0  0  0
  -11.9928  -21.9939   31.4376 C   0  0  0  0  0  0  0  0  0  0  0  0
  -12.6600  -22.6535   32.6426 C   0  0  0  0  0  0  0  0  0  0  0  0
  -11.8944  -23.8379   32.8221 N   0  0  0  0  0  0  0  0  0  0  0  0
  -10.4950  -24.0363   33.3913 C   0  0  0  0  0  0  0  0  0  0  0  0
   -9.7651  -23.2752   33.8792 O   0  0  0  0  0  0  0  0  0  0  0  0
  -10.1101  -25.4532   33.1241 C   0  0  0  0  0  0  0  0  0  0  0  0
  -10.6908  -26.3833   32.2018 C   0  0  0  0  0  0  0  0  0  0  0  0
   -9.6582  -27.2021   31.8390 C   0  0  0  0  0  0  0  0  0  0  0  0
   -8.6482  -26.8848   32.6909 N   0  0  0  0  0  0  0  0  0  0  0  0
   -8.9885  -25.9837   33.6105 N   0  0  0  0  0  0  0  0  0  0  0  0
  -14.1656  -23.0060   32.5327 C   0  0  0  0  0  0  0  0  0  0  0  0
  -15.0632  -21.7756   32.4638 C   0  0  0  0  0  0  0  0  0  0  0  0
  -14.5262  -24.0196   31.4423 C   0  0  0  0  0  0  0  0  0  0  0  0
  -10.9993  -25.7960   28.2338 C   0  0  0  0  0  0  0  0  0  0  0  0
  -11.4189  -25.7621   26.9461 N   0  0  0  0  0  0  0  0  0  0  0  0
  -13.1125  -24.2634   25.0444 H   0  0  0  0  0  0  0  0  0  0  0  0
  -12.1033  -22.8729   25.3889 H   0  0  0  0  0  0  0  0  0  0  0  0
  -11.3209  -24.2766   24.7126 H   0  0  0  0  0  0  0  0  0  0  0  0
  -12.5211  -22.6684   29.4869 H   0  0  0  0  0  0  0  0  0  0  0  0
  -12.5391  -21.1466   31.1225 H   0  0  0  0  0  0  0  0  0  0  0  0
  -10.9740  -21.6800   31.6878 H   0  0  0  0  0  0  0  0  0  0  0  0
  -12.5002  -22.0123   33.5178 H   0  0  0  0  0  0  0  0  0  0  0  0
  -12.2768  -24.7323   32.5501 H   0  0  0  0  0  0  0  0  0  0  0  0
  -11.6161  -26.3225   31.6509 H   0  0  0  0  0  0  0  0  0  0  0  0
   -9.5387  -27.9502   31.0700 H   0  0  0  0  0  0  0  0  0  0  0  0
   -7.7311  -27.3243   32.7714 H   0  0  0  0  0  0  0  0  0  0  0  0
  -14.4419  -23.4984   33.4650 H   0  0  0  0  0  0  0  0  0  0  0  0
  -14.7740  -21.0313   33.2122 H   0  0  0  0  0  0  0  0  0  0  0  0
  -16.1047  -22.0521   32.6628 H   0  0  0  0  0  0  0  0  0  0  0  0
  -15.0376  -21.3140   31.4782 H   0  0  0  0  0  0  0  0  0  0  0  0
  -15.5870  -24.2835   31.5110 H   0  0  0  0  0  0  0  0  0  0  0  0
  -14.3264  -23.6309   30.4440 H   0  0  0  0  0  0  0  0  0  0  0  0
  -13.9797  -24.9597   31.5330 H   0  0  0  0  0  0  0  0  0  0  0  0
  -10.4593  -26.6253   28.6699 H   0  0  0  0  0  0  0  0  0  0  0  0
  -11.2787  -26.4839   26.2545 H   0  0  0  0  0  0  0  0  0  0  0  0
  1  2  1  0
  2  3  2  0
  3  4  1  0
  4  5  1  0
  5  6  2  0
  5  7  1  0
  7  8  1  0
  8  9  1  0
  9 10  1  0
 10 11  1  0
 11 12  2  0
 11 13  1  0
 13 14  1  0
 14 15  2  0
 15 16  1  0
 16 17  1  0
  9 18  1  0
 18 19  1  0
 18 20  1  0
  4 21  2  0
 21 22  1  0
 22  2  1  0
 17 13  2  0
  1 23  1  0
  1 24  1  0
  1 25  1  0
  7 26  1  0
  8 27  1  0
  8 28  1  0
  9 29  1  0
 10 30  1  0
 14 31  1  0
 15 32  1  0
 16 33  1  0
 18 34  1  0
 19 35  1  0
 19 36  1  0
 19 37  1  0
 20 38  1  0
 20 39  1  0
 20 40  1  0
 21 41  1  0
 22 42  1  0
M  END
>  <Energy>  (149) 
118.89571268244387

>  <compound_id>  (149) 
10626

>  <target_id>  (149) 
1

>  <reference_id>  (149) 
35

>  <inspiration_ids>  (149) 
[35, 96]

>  <energy_score>  (149) 
21.26268410249031

>  <distance_score>  (149) 
2.595393392862761

>  <path>  (149) 
/opt/xchem-fragalysis-2/maxwin/BulkDock/SCRATCH/511017/C10626-P35/C10626-P35.minimised.mol

>  <scratch_subdir>  (149) 
/opt/xchem-fragalysis-2/maxwin/BulkDock/SCRATCH/511017/C10626-P35

>  <fragmenstein_runtime>  (149) 
9.921036720275879

>  <fragmenstein_outcome>  (149) 
too moved

>  <fragmenstein_mode>  (149) 
expansion

>  <fragmenstein_error>  (149) 


$$$$
C10626-P96
     RDKit          3D

 42 43  0  0  0  0  0  0  0  0999 V2000
  -11.0340  -24.9818   26.4051 C   0  0  0  0  0  0  0  0  0  0  0  0
  -11.1869  -24.3660   27.7265 C   0  0  0  0  0  0  0  0  0  0  0  0
  -12.2843  -24.2847   28.4441 N   0  0  0  0  0  0  0  0  0  0  0  0
  -11.9533  -23.5310   29.5445 C   0  0  0  0  0  0  0  0  0  0  0  0
  -12.8911  -23.1366   30.6067 C   0  0  0  0  0  0  0  0  0  0  0  0
  -13.6564  -23.8853   31.0659 O   0  0  0  0  0  0  0  0  0  0  0  0
  -12.6400  -21.6524   30.9170 N   0  0  0  0  0  0  0  0  0  0  0  0
  -13.2135  -20.7948   31.9269 C   0  0  0  0  0  0  0  0  0  0  0  0
  -13.1468  -21.1765   33.3986 C   0  0  0  0  0  0  0  0  0  0  0  0
  -12.0417  -22.0796   33.5153 N   0  0  0  0  0  0  0  0  0  0  0  0
  -10.6004  -21.9608   33.0052 C   0  0  0  0  0  0  0  0  0  0  0  0
  -10.0583  -21.0782   32.4758 O   0  0  0  0  0  0  0  0  0  0  0  0
   -9.8830  -23.2231   33.1571 C   0  0  0  0  0  0  0  0  0  0  0  0
  -10.1698  -24.4052   32.4400 C   0  0  0  0  0  0  0  0  0  0  0  0
   -9.0854  -25.2133   32.6316 C   0  0  0  0  0  0  0  0  0  0  0  0
   -8.2422  -24.5186   33.4352 N   0  0  0  0  0  0  0  0  0  0  0  0
   -8.7348  -23.3437   33.8311 N   0  0  0  0  0  0  0  0  0  0  0  0
  -14.5079  -21.4883   34.0124 C   0  0  0  0  0  0  0  0  0  0  0  0
  -15.3871  -20.2297   34.1122 C   0  0  0  0  0  0  0  0  0  0  0  0
  -15.3048  -22.5900   33.3306 C   0  0  0  0  0  0  0  0  0  0  0  0
  -10.6145  -23.1960   29.4862 C   0  0  0  0  0  0  0  0  0  0  0  0
  -10.1360  -23.7594   28.3504 N   0  0  0  0  0  0  0  0  0  0  0  0
  -11.9609  -25.4722   26.0966 H   0  0  0  0  0  0  0  0  0  0  0  0
  -10.7706  -24.2120   25.6754 H   0  0  0  0  0  0  0  0  0  0  0  0
  -10.2332  -25.7216   26.4280 H   0  0  0  0  0  0  0  0  0  0  0  0
  -11.9515  -21.2834   30.2703 H   0  0  0  0  0  0  0  0  0  0  0  0
  -14.1872  -20.4321   31.5981 H   0  0  0  0  0  0  0  0  0  0  0  0
  -12.4875  -19.9884   31.9076 H   0  0  0  0  0  0  0  0  0  0  0  0
  -12.7908  -20.2844   33.9360 H   0  0  0  0  0  0  0  0  0  0  0  0
  -12.1559  -22.9578   33.9996 H   0  0  0  0  0  0  0  0  0  0  0  0
  -11.0230  -24.6342   31.8248 H   0  0  0  0  0  0  0  0  0  0  0  0
   -8.8272  -26.1855   32.2597 H   0  0  0  0  0  0  0  0  0  0  0  0
   -7.3102  -24.7703   33.7493 H   0  0  0  0  0  0  0  0  0  0  0  0
  -14.2980  -21.7717   35.0314 H   0  0  0  0  0  0  0  0  0  0  0  0
  -15.7220  -19.8817   33.1302 H   0  0  0  0  0  0  0  0  0  0  0  0
  -14.8473  -19.4089   34.5952 H   0  0  0  0  0  0  0  0  0  0  0  0
  -16.2800  -20.4349   34.7131 H   0  0  0  0  0  0  0  0  0  0  0  0
  -16.2124  -22.8232   33.8988 H   0  0  0  0  0  0  0  0  0  0  0  0
  -15.6339  -22.2828   32.3448 H   0  0  0  0  0  0  0  0  0  0  0  0
  -14.7276  -23.5101   33.2340 H   0  0  0  0  0  0  0  0  0  0  0  0
   -9.9843  -22.6393   30.1571 H   0  0  0  0  0  0  0  0  0  0  0  0
   -9.1940  -23.6873   27.9969 H   0  0  0  0  0  0  0  0  0  0  0  0
  1  2  1  0
  2  3  2  0
  3  4  1  0
  4  5  1  0
  5  6  2  0
  5  7  1  0
  7  8  1  0
  8  9  1  0
  9 10  1  0
 10 11  1  0
 11 12  2  0
 11 13  1  0
 13 14  1  0
 14 15  2  0
 15 16  1  0
 16 17  1  0
  9 18  1  0
 18 19  1  0
 18 20  1  0
  4 21  2  0
 21 22  1  0
 22  2  1  0
 17 13  2  0
  1 23  1  0
  1 24  1  0
  1 25  1  0
  7 26  1  0
  8 27  1  0
  8 28  1  0
  9 29  1  0
 10 30  1  0
 14 31  1  0
 15 32  1  0
 16 33  1  0
 18 34  1  0
 19 35  1  0
 19 36  1  0
 19 37  1  0
 20 38  1  0
 20 39  1  0
 20 40  1  0
 21 41  1  0
 22 42  1  0
M  END
>  <Energy>  (150) 
118.55892809970692

>  <compound_id>  (150) 
10626

>  <target_id>  (150) 
1

>  <reference_id>  (150) 
96

>  <inspiration_ids>  (150) 
[35, 96]

>  <energy_score>  (150) 
20.925899519751

>  <distance_score>  (150) 
2.1647295478156505

>  <path>  (150) 
/opt/xchem-fragalysis-2/maxwin/BulkDock/SCRATCH/511017/C10626-P96/C10626-P96.minimised.mol

>  <scratch_subdir>  (150) 
/opt/xchem-fragalysis-2/maxwin/BulkDock/SCRATCH/511017/C10626-P96

>  <fragmenstein_runtime>  (150) 
7.369331121444702

>  <fragmenstein_outcome>  (150) 
too moved

>  <fragmenstein_mode>  (150) 
expansion

>  <fragmenstein_error>  (150) 


$$$$
C10627-P35
     RDKit          3D

 48 49  0  0  0  0  0  0  0  0999 V2000
  -12.4946  -23.8195   28.5524 C   0  0  0  0  0  0  0  0  0  0  0  0
  -13.5905  -24.5182   29.3887 C   0  0  0  0  0  0  0  0  0  0  0  0
  -14.3012  -25.5888   28.5443 C   0  0  0  0  0  0  0  0  0  0  0  0
  -13.0776  -25.1279   30.7179 C   0  0  0  0  0  0  0  0  0  0  0  0
  -12.3167  -24.1360   31.5774 C   0  0  0  0  0  0  0  0  0  0  0  0
  -13.2902  -23.1547   32.2317 C   0  0  0  0  0  0  0  0  0  0  0  0
  -12.4284  -22.3616   33.1429 N   0  0  0  0  0  0  0  0  0  0  0  0
  -13.7062  -21.5899   33.3243 C   0  0  0  0  0  0  0  0  0  0  0  0
  -11.3576  -21.4787   32.8656 C   0  0  0  0  0  0  0  0  0  0  0  0
  -10.9310  -21.0767   31.8191 O   0  0  0  0  0  0  0  0  0  0  0  0
  -10.6629  -21.1229   34.1211 C   0  0  0  0  0  0  0  0  0  0  0  0
  -10.6583  -21.8258   35.3560 C   0  0  0  0  0  0  0  0  0  0  0  0
   -9.8258  -21.1082   36.1769 C   0  0  0  0  0  0  0  0  0  0  0  0
   -9.3825  -20.0575   35.4327 N   0  0  0  0  0  0  0  0  0  0  0  0
   -9.9036  -20.0193   34.2065 N   0  0  0  0  0  0  0  0  0  0  0  0
  -12.1965  -26.1684   30.3330 N   0  0  0  0  0  0  0  0  0  0  0  0
  -12.0796  -27.5072   30.7858 C   0  0  0  0  0  0  0  0  0  0  0  0
  -12.6400  -28.0874   31.6665 O   0  0  0  0  0  0  0  0  0  0  0  0
  -11.1603  -28.0675   29.8408 C   0  0  0  0  0  0  0  0  0  0  0  0
   -9.8506  -27.6655   29.6787 C   0  0  0  0  0  0  0  0  0  0  0  0
   -9.5926  -27.4611   28.3449 N   0  0  0  0  0  0  0  0  0  0  0  0
  -10.6480  -27.9080   27.7058 C   0  0  0  0  0  0  0  0  0  0  0  0
  -11.5608  -28.4319   28.5746 N   0  0  0  0  0  0  0  0  0  0  0  0
  -12.8258  -29.0241   28.2168 C   0  0  0  0  0  0  0  0  0  0  0  0
  -12.2375  -22.8484   28.9880 H   0  0  0  0  0  0  0  0  0  0  0  0
  -11.5731  -24.4017   28.4742 H   0  0  0  0  0  0  0  0  0  0  0  0
  -12.8172  -23.6379   27.5245 H   0  0  0  0  0  0  0  0  0  0  0  0
  -14.3232  -23.7651   29.6574 H   0  0  0  0  0  0  0  0  0  0  0  0
  -13.5832  -26.2927   28.1219 H   0  0  0  0  0  0  0  0  0  0  0  0
  -15.0288  -26.1454   29.1440 H   0  0  0  0  0  0  0  0  0  0  0  0
  -14.8360  -25.1597   27.6952 H   0  0  0  0  0  0  0  0  0  0  0  0
  -13.9117  -25.5738   31.2710 H   0  0  0  0  0  0  0  0  0  0  0  0
  -11.5628  -23.5997   30.9891 H   0  0  0  0  0  0  0  0  0  0  0  0
  -11.7233  -24.6556   32.3390 H   0  0  0  0  0  0  0  0  0  0  0  0
  -14.0580  -23.7484   32.7478 H   0  0  0  0  0  0  0  0  0  0  0  0
  -13.6969  -22.5804   31.3846 H   0  0  0  0  0  0  0  0  0  0  0  0
  -14.0282  -21.0252   32.4511 H   0  0  0  0  0  0  0  0  0  0  0  0
  -14.5568  -22.1549   33.7108 H   0  0  0  0  0  0  0  0  0  0  0  0
  -13.4993  -20.8294   34.0897 H   0  0  0  0  0  0  0  0  0  0  0  0
  -11.1714  -22.7454   35.5921 H   0  0  0  0  0  0  0  0  0  0  0  0
   -9.4848  -21.2564   37.1907 H   0  0  0  0  0  0  0  0  0  0  0  0
   -8.7154  -19.3362   35.6914 H   0  0  0  0  0  0  0  0  0  0  0  0
  -11.5010  -26.0008   29.6135 H   0  0  0  0  0  0  0  0  0  0  0  0
   -9.1930  -27.2731   30.4456 H   0  0  0  0  0  0  0  0  0  0  0  0
  -10.7786  -27.9076   26.6325 H   0  0  0  0  0  0  0  0  0  0  0  0
  -12.6317  -30.0058   27.7794 H   0  0  0  0  0  0  0  0  0  0  0  0
  -13.4548  -29.1380   29.1022 H   0  0  0  0  0  0  0  0  0  0  0  0
  -13.3249  -28.3861   27.4856 H   0  0  0  0  0  0  0  0  0  0  0  0
  1  2  1  0
  2  3  1  0
  2  4  1  0
  4  5  1  0
  5  6  1  0
  6  7  1  0
  7  8  1  0
  7  9  1  0
  9 10  2  0
  9 11  1  0
 11 12  1  0
 12 13  2  0
 13 14  1  0
 14 15  1  0
  4 16  1  0
 16 17  1  0
 17 18  2  0
 17 19  1  0
 19 20  2  0
 20 21  1  0
 21 22  2  0
 22 23  1  0
 23 24  1  0
 15 11  2  0
 23 19  1  0
  1 25  1  0
  1 26  1  0
  1 27  1  0
  2 28  1  0
  3 29  1  0
  3 30  1  0
  3 31  1  0
  4 32  1  0
  5 33  1  0
  5 34  1  0
  6 35  1  0
  6 36  1  0
  8 37  1  0
  8 38  1  0
  8 39  1  0
 12 40  1  0
 13 41  1  0
 14 42  1  0
 16 43  1  0
 20 44  1  0
 22 45  1  0
 24 46  1  0
 24 47  1  0
 24 48  1  0
M  END
>  <Energy>  (151) 
115.51309629620926

>  <compound_id>  (151) 
10627

>  <target_id>  (151) 
1

>  <reference_id>  (151) 
35

>  <inspiration_ids>  (151) 
[35, 96]

>  <energy_score>  (151) 
66.05641076019617

>  <distance_score>  (151) 
4.556391690869214

>  <path>  (151) 
/opt/xchem-fragalysis-2/maxwin/BulkDock/SCRATCH/511017/C10627-P35/C10627-P35.minimised.mol

>  <scratch_subdir>  (151) 
/opt/xchem-fragalysis-2/maxwin/BulkDock/SCRATCH/511017/C10627-P35

>  <fragmenstein_runtime>  (151) 
9.773361206054688

>  <fragmenstein_outcome>  (151) 
too moved

>  <fragmenstein_mode>  (151) 
expansion

>  <fragmenstein_error>  (151) 


$$$$
C10627-P96
     RDKit          3D

 48 49  0  0  0  0  0  0  0  0999 V2000
  -14.3261  -21.8887   32.9925 C   0  0  0  0  0  0  0  0  0  0  0  0
  -12.8907  -21.6698   33.4510 C   0  0  0  0  0  0  0  0  0  0  0  0
  -12.5152  -20.2011   33.2954 C   0  0  0  0  0  0  0  0  0  0  0  0
  -11.8603  -22.6333   32.7988 C   0  0  0  0  0  0  0  0  0  0  0  0
  -10.4210  -22.2429   33.1879 C   0  0  0  0  0  0  0  0  0  0  0  0
   -9.3340  -23.3581   33.2689 C   0  0  0  0  0  0  0  0  0  0  0  0
   -9.7868  -24.5044   32.4352 N   0  0  0  0  0  0  0  0  0  0  0  0
   -8.6054  -25.1659   33.0868 C   0  0  0  0  0  0  0  0  0  0  0  0
   -9.7444  -24.7042   31.0301 C   0  0  0  0  0  0  0  0  0  0  0  0
   -9.2488  -24.0367   30.1602 O   0  0  0  0  0  0  0  0  0  0  0  0
  -10.5516  -25.9064   30.6689 C   0  0  0  0  0  0  0  0  0  0  0  0
  -10.8021  -26.3943   29.3608 C   0  0  0  0  0  0  0  0  0  0  0  0
  -11.7341  -27.3937   29.5028 C   0  0  0  0  0  0  0  0  0  0  0  0
  -12.0161  -27.4464   30.8306 N   0  0  0  0  0  0  0  0  0  0  0  0
  -11.2549  -26.6285   31.5694 N   0  0  0  0  0  0  0  0  0  0  0  0
  -11.9778  -22.7925   31.3585 N   0  0  0  0  0  0  0  0  0  0  0  0
  -12.8857  -23.5657   30.5716 C   0  0  0  0  0  0  0  0  0  0  0  0
  -13.8341  -24.2190   30.8925 O   0  0  0  0  0  0  0  0  0  0  0  0
  -12.5048  -23.6223   29.1477 C   0  0  0  0  0  0  0  0  0  0  0  0
  -12.9720  -24.5868   28.2557 C   0  0  0  0  0  0  0  0  0  0  0  0
  -12.3810  -24.5110   27.0278 N   0  0  0  0  0  0  0  0  0  0  0  0
  -11.6109  -23.4572   27.1077 C   0  0  0  0  0  0  0  0  0  0  0  0
  -11.6772  -22.8649   28.3430 N   0  0  0  0  0  0  0  0  0  0  0  0
  -11.0257  -21.6119   28.6134 C   0  0  0  0  0  0  0  0  0  0  0  0
  -14.6110  -22.9427   33.0494 H   0  0  0  0  0  0  0  0  0  0  0  0
  -15.0228  -21.3273   33.6250 H   0  0  0  0  0  0  0  0  0  0  0  0
  -14.4546  -21.5316   31.9704 H   0  0  0  0  0  0  0  0  0  0  0  0
  -12.8782  -21.8803   34.5274 H   0  0  0  0  0  0  0  0  0  0  0  0
  -11.7199  -19.9192   33.9906 H   0  0  0  0  0  0  0  0  0  0  0  0
  -12.1532  -20.0116   32.2843 H   0  0  0  0  0  0  0  0  0  0  0  0
  -13.3656  -19.5456   33.5081 H   0  0  0  0  0  0  0  0  0  0  0  0
  -12.0833  -23.6207   33.1984 H   0  0  0  0  0  0  0  0  0  0  0  0
  -10.4888  -21.8265   34.1934 H   0  0  0  0  0  0  0  0  0  0  0  0
  -10.0578  -21.4447   32.5285 H   0  0  0  0  0  0  0  0  0  0  0  0
   -9.2690  -23.5558   34.3519 H   0  0  0  0  0  0  0  0  0  0  0  0
   -8.4128  -22.8920   32.8845 H   0  0  0  0  0  0  0  0  0  0  0  0
   -7.6293  -24.7426   32.8132 H   0  0  0  0  0  0  0  0  0  0  0  0
   -8.7251  -25.3606   34.1618 H   0  0  0  0  0  0  0  0  0  0  0  0
   -8.5663  -26.1765   32.6689 H   0  0  0  0  0  0  0  0  0  0  0  0
  -10.3948  -26.0127   28.4336 H   0  0  0  0  0  0  0  0  0  0  0  0
  -12.2504  -28.0142   28.7849 H   0  0  0  0  0  0  0  0  0  0  0  0
  -12.6976  -28.0320   31.3028 H   0  0  0  0  0  0  0  0  0  0  0  0
  -11.2478  -22.4420   30.7650 H   0  0  0  0  0  0  0  0  0  0  0  0
  -13.6879  -25.3687   28.4768 H   0  0  0  0  0  0  0  0  0  0  0  0
  -11.0145  -23.0560   26.2987 H   0  0  0  0  0  0  0  0  0  0  0  0
  -10.0345  -21.8374   28.9918 H   0  0  0  0  0  0  0  0  0  0  0  0
  -10.9294  -21.0501   27.6869 H   0  0  0  0  0  0  0  0  0  0  0  0
  -11.6101  -21.0223   29.3212 H   0  0  0  0  0  0  0  0  0  0  0  0
  1  2  1  0
  2  3  1  0
  2  4  1  0
  4  5  1  0
  5  6  1  0
  6  7  1  0
  7  8  1  0
  7  9  1  0
  9 10  2  0
  9 11  1  0
 11 12  1  0
 12 13  2  0
 13 14  1  0
 14 15  1  0
  4 16  1  0
 16 17  1  0
 17 18  2  0
 17 19  1  0
 19 20  2  0
 20 21  1  0
 21 22  2  0
 22 23  1  0
 23 24  1  0
 15 11  2  0
 23 19  1  0
  1 25  1  0
  1 26  1  0
  1 27  1  0
  2 28  1  0
  3 29  1  0
  3 30  1  0
  3 31  1  0
  4 32  1  0
  5 33  1  0
  5 34  1  0
  6 35  1  0
  6 36  1  0
  8 37  1  0
  8 38  1  0
  8 39  1  0
 12 40  1  0
 13 41  1  0
 14 42  1  0
 16 43  1  0
 20 44  1  0
 22 45  1  0
 24 46  1  0
 24 47  1  0
 24 48  1  0
M  END
>  <Energy>  (152) 
101.0319438532877

>  <compound_id>  (152) 
10627

>  <target_id>  (152) 
1

>  <reference_id>  (152) 
96

>  <inspiration_ids>  (152) 
[35, 96]

>  <energy_score>  (152) 
51.5752583172779

>  <distance_score>  (152) 
3.636171402538243

>  <path>  (152) 
/opt/xchem-fragalysis-2/maxwin/BulkDock/SCRATCH/511017/C10627-P96/C10627-P96.minimised.mol

>  <scratch_subdir>  (152) 
/opt/xchem-fragalysis-2/maxwin/BulkDock/SCRATCH/511017/C10627-P96

>  <fragmenstein_runtime>  (152) 
21.586084842681885

>  <fragmenstein_outcome>  (152) 
too moved

>  <fragmenstein_mode>  (152) 
expansion

>  <fragmenstein_error>  (152) 


$$$$
C10628-P35
     RDKit          3D

 51 52  0  0  0  0  0  0  0  0999 V2000
  -11.6045  -24.1881   26.4071 C   0  0  0  0  0  0  0  0  0  0  0  0
  -12.2641  -25.3842   27.0665 C   0  0  0  0  0  0  0  0  0  0  0  0
  -11.7045  -25.7148   28.4128 C   0  0  0  0  0  0  0  0  0  0  0  0
  -10.8303  -26.7700   28.5520 N   0  0  0  0  0  0  0  0  0  0  0  0
  -10.5012  -26.7854   29.8215 C   0  0  0  0  0  0  0  0  0  0  0  0
  -11.1728  -25.8296   30.5252 N   0  0  0  0  0  0  0  0  0  0  0  0
  -11.9614  -25.1247   29.6455 C   0  0  0  0  0  0  0  0  0  0  0  0
  -12.7546  -23.9386   29.9179 C   0  0  0  0  0  0  0  0  0  0  0  0
  -12.9043  -23.1924   29.0030 O   0  0  0  0  0  0  0  0  0  0  0  0
  -13.1455  -23.8251   31.2793 N   0  0  0  0  0  0  0  0  0  0  0  0
  -13.7559  -22.7386   31.9970 C   0  0  0  0  0  0  0  0  0  0  0  0
  -14.8811  -23.1154   32.9538 C   0  0  0  0  0  0  0  0  0  0  0  0
  -16.2133  -23.7962   32.4815 C   0  0  0  0  0  0  0  0  0  0  0  0
  -15.8930  -24.9633   31.5777 N   0  0  0  0  0  0  0  0  0  0  0  0
  -17.3906  -24.9541   31.3942 C   0  0  0  0  0  0  0  0  0  0  0  0
  -15.4501  -26.2752   31.8800 C   0  0  0  0  0  0  0  0  0  0  0  0
  -15.3029  -26.8229   32.9351 O   0  0  0  0  0  0  0  0  0  0  0  0
  -15.0203  -27.0055   30.6584 C   0  0  0  0  0  0  0  0  0  0  0  0
  -15.3079  -26.7369   29.2956 C   0  0  0  0  0  0  0  0  0  0  0  0
  -14.5253  -27.6026   28.5745 C   0  0  0  0  0  0  0  0  0  0  0  0
  -13.7630  -28.2639   29.4865 N   0  0  0  0  0  0  0  0  0  0  0  0
  -14.0825  -27.9779   30.7573 N   0  0  0  0  0  0  0  0  0  0  0  0
  -12.6265  -21.8523   32.6389 C   0  0  0  0  0  0  0  0  0  0  0  0
  -12.0100  -22.2415   33.9755 C   0  0  0  0  0  0  0  0  0  0  0  0
  -11.4420  -21.6561   31.6880 C   0  0  0  0  0  0  0  0  0  0  0  0
  -11.9321  -24.0947   25.3688 H   0  0  0  0  0  0  0  0  0  0  0  0
  -11.8462  -23.2487   26.9071 H   0  0  0  0  0  0  0  0  0  0  0  0
  -10.5200  -24.2798   26.4222 H   0  0  0  0  0  0  0  0  0  0  0  0
  -12.1395  -26.2569   26.4132 H   0  0  0  0  0  0  0  0  0  0  0  0
  -13.3426  -25.2076   27.1419 H   0  0  0  0  0  0  0  0  0  0  0  0
   -9.7922  -27.4593   30.2854 H   0  0  0  0  0  0  0  0  0  0  0  0
  -11.0596  -25.6400   31.5116 H   0  0  0  0  0  0  0  0  0  0  0  0
  -12.9260  -24.6918   31.7594 H   0  0  0  0  0  0  0  0  0  0  0  0
  -14.2110  -22.1142   31.2204 H   0  0  0  0  0  0  0  0  0  0  0  0
  -14.4508  -23.7849   33.6672 H   0  0  0  0  0  0  0  0  0  0  0  0
  -15.1824  -22.2001   33.4761 H   0  0  0  0  0  0  0  0  0  0  0  0
  -16.7065  -24.1276   33.4095 H   0  0  0  0  0  0  0  0  0  0  0  0
  -16.7637  -22.9592   32.0321 H   0  0  0  0  0  0  0  0  0  0  0  0
  -17.8640  -24.0583   30.9778 H   0  0  0  0  0  0  0  0  0  0  0  0
  -17.9260  -25.3248   32.2842 H   0  0  0  0  0  0  0  0  0  0  0  0
  -17.6069  -25.7292   30.6455 H   0  0  0  0  0  0  0  0  0  0  0  0
  -15.9702  -25.9908   28.8883 H   0  0  0  0  0  0  0  0  0  0  0  0
  -14.3929  -27.7539   27.5126 H   0  0  0  0  0  0  0  0  0  0  0  0
  -12.9995  -28.9090   29.3080 H   0  0  0  0  0  0  0  0  0  0  0  0
  -13.0970  -20.8977   32.8507 H   0  0  0  0  0  0  0  0  0  0  0  0
  -11.4710  -23.1898   33.9053 H   0  0  0  0  0  0  0  0  0  0  0  0
  -12.7567  -22.2620   34.7678 H   0  0  0  0  0  0  0  0  0  0  0  0
  -11.2743  -21.4902   34.2902 H   0  0  0  0  0  0  0  0  0  0  0  0
  -10.7689  -20.8781   32.0598 H   0  0  0  0  0  0  0  0  0  0  0  0
  -11.7596  -21.3910   30.6778 H   0  0  0  0  0  0  0  0  0  0  0  0
  -10.8542  -22.5764   31.6270 H   0  0  0  0  0  0  0  0  0  0  0  0
  1  2  1  0
  2  3  1  0
  3  4  1  0
  4  5  2  0
  5  6  1  0
  6  7  1  0
  7  8  1  0
  8  9  2  0
  8 10  1  0
 10 11  1  0
 11 12  1  0
 12 13  1  0
 13 14  1  0
 14 15  1  0
 14 16  1  0
 16 17  2  0
 16 18  1  0
 18 19  1  0
 19 20  2  0
 20 21  1  0
 21 22  1  0
 11 23  1  0
 23 24  1  0
 23 25  1  0
  7  3  2  0
 22 18  2  0
  1 26  1  0
  1 27  1  0
  1 28  1  0
  2 29  1  0
  2 30  1  0
  5 31  1  0
  6 32  1  0
 10 33  1  0
 11 34  1  0
 12 35  1  0
 12 36  1  0
 13 37  1  0
 13 38  1  0
 15 39  1  0
 15 40  1  0
 15 41  1  0
 19 42  1  0
 20 43  1  0
 21 44  1  0
 23 45  1  0
 24 46  1  0
 24 47  1  0
 24 48  1  0
 25 49  1  0
 25 50  1  0
 25 51  1  0
M  END
>  <Energy>  (153) 
92.846025453464819

>  <compound_id>  (153) 
10628

>  <target_id>  (153) 
1

>  <reference_id>  (153) 
35

>  <inspiration_ids>  (153) 
[35, 96]

>  <energy_score>  (153) 
41.97509653487339

>  <distance_score>  (153) 
5.277486443055507

>  <path>  (153) 
/opt/xchem-fragalysis-2/maxwin/BulkDock/SCRATCH/511017/C10628-P35/C10628-P35.minimised.mol

>  <scratch_subdir>  (153) 
/opt/xchem-fragalysis-2/maxwin/BulkDock/SCRATCH/511017/C10628-P35

>  <fragmenstein_runtime>  (153) 
27.496617317199707

>  <fragmenstein_outcome>  (153) 
too moved

>  <fragmenstein_mode>  (153) 
expansion

>  <fragmenstein_error>  (153) 


$$$$
C10628-P96
     RDKit          3D

 51 52  0  0  0  0  0  0  0  0999 V2000
  -12.4314  -24.0798   26.3952 C   0  0  0  0  0  0  0  0  0  0  0  0
  -13.6449  -24.9763   26.3460 C   0  0  0  0  0  0  0  0  0  0  0  0
  -13.5557  -26.2580   27.0959 C   0  0  0  0  0  0  0  0  0  0  0  0
  -14.3481  -27.2871   26.6206 N   0  0  0  0  0  0  0  0  0  0  0  0
  -14.0750  -28.3270   27.3657 C   0  0  0  0  0  0  0  0  0  0  0  0
  -13.1457  -28.0276   28.3049 N   0  0  0  0  0  0  0  0  0  0  0  0
  -12.8198  -26.6955   28.1882 C   0  0  0  0  0  0  0  0  0  0  0  0
  -11.8559  -26.1356   29.1079 C   0  0  0  0  0  0  0  0  0  0  0  0
  -10.9258  -26.8182   29.4042 O   0  0  0  0  0  0  0  0  0  0  0  0
  -12.2539  -24.8626   29.5763 N   0  0  0  0  0  0  0  0  0  0  0  0
  -11.7143  -24.0228   30.6329 C   0  0  0  0  0  0  0  0  0  0  0  0
  -12.7412  -22.9377   30.9989 C   0  0  0  0  0  0  0  0  0  0  0  0
  -13.8925  -23.3777   31.9516 C   0  0  0  0  0  0  0  0  0  0  0  0
  -14.5370  -24.7044   31.5406 N   0  0  0  0  0  0  0  0  0  0  0  0
  -15.5499  -24.2846   32.5735 C   0  0  0  0  0  0  0  0  0  0  0  0
  -14.1237  -26.0564   31.7772 C   0  0  0  0  0  0  0  0  0  0  0  0
  -13.2180  -26.4894   32.4325 O   0  0  0  0  0  0  0  0  0  0  0  0
  -14.9963  -27.0530   31.1054 C   0  0  0  0  0  0  0  0  0  0  0  0
  -16.2959  -26.9023   30.5602 C   0  0  0  0  0  0  0  0  0  0  0  0
  -16.6637  -28.1526   30.1330 C   0  0  0  0  0  0  0  0  0  0  0  0
  -15.6318  -28.9759   30.4537 N   0  0  0  0  0  0  0  0  0  0  0  0
  -14.5923  -28.3372   30.9974 N   0  0  0  0  0  0  0  0  0  0  0  0
  -10.3445  -23.3920   30.2600 C   0  0  0  0  0  0  0  0  0  0  0  0
  -10.3036  -22.7916   28.8546 C   0  0  0  0  0  0  0  0  0  0  0  0
   -9.1816  -24.3721   30.4223 C   0  0  0  0  0  0  0  0  0  0  0  0
  -12.4982  -23.3067   25.6231 H   0  0  0  0  0  0  0  0  0  0  0  0
  -12.3892  -23.5573   27.3476 H   0  0  0  0  0  0  0  0  0  0  0  0
  -11.4999  -24.6358   26.2510 H   0  0  0  0  0  0  0  0  0  0  0  0
  -13.8304  -25.2251   25.2942 H   0  0  0  0  0  0  0  0  0  0  0  0
  -14.5304  -24.4292   26.6797 H   0  0  0  0  0  0  0  0  0  0  0  0
  -14.5166  -29.3091   27.2725 H   0  0  0  0  0  0  0  0  0  0  0  0
  -12.8056  -28.6333   29.0424 H   0  0  0  0  0  0  0  0  0  0  0  0
  -13.1453  -24.6227   29.1593 H   0  0  0  0  0  0  0  0  0  0  0  0
  -11.5514  -24.6648   31.5052 H   0  0  0  0  0  0  0  0  0  0  0  0
  -13.1713  -22.5340   30.0788 H   0  0  0  0  0  0  0  0  0  0  0  0
  -12.2395  -22.0959   31.4936 H   0  0  0  0  0  0  0  0  0  0  0  0
  -13.3815  -23.5097   32.9114 H   0  0  0  0  0  0  0  0  0  0  0  0
  -14.5418  -22.4923   31.9950 H   0  0  0  0  0  0  0  0  0  0  0  0
  -16.1836  -23.4430   32.2634 H   0  0  0  0  0  0  0  0  0  0  0  0
  -15.1708  -24.2113   33.5929 H   0  0  0  0  0  0  0  0  0  0  0  0
  -16.2707  -25.1097   32.6578 H   0  0  0  0  0  0  0  0  0  0  0  0
  -16.9233  -26.0282   30.5259 H   0  0  0  0  0  0  0  0  0  0  0  0
  -17.5662  -28.5280   29.6711 H   0  0  0  0  0  0  0  0  0  0  0  0
  -15.5696  -29.9816   30.3272 H   0  0  0  0  0  0  0  0  0  0  0  0
  -10.1549  -22.5876   30.9816 H   0  0  0  0  0  0  0  0  0  0  0  0
  -11.1125  -22.0717   28.7006 H   0  0  0  0  0  0  0  0  0  0  0  0
   -9.3593  -22.2771   28.6655 H   0  0  0  0  0  0  0  0  0  0  0  0
  -10.3597  -23.5737   28.0946 H   0  0  0  0  0  0  0  0  0  0  0  0
   -8.2335  -23.8269   30.3974 H   0  0  0  0  0  0  0  0  0  0  0  0
   -9.1479  -25.1060   29.6144 H   0  0  0  0  0  0  0  0  0  0  0  0
   -9.2321  -24.9009   31.3793 H   0  0  0  0  0  0  0  0  0  0  0  0
  1  2  1  0
  2  3  1  0
  3  4  1  0
  4  5  2  0
  5  6  1  0
  6  7  1  0
  7  8  1  0
  8  9  2  0
  8 10  1  0
 10 11  1  0
 11 12  1  0
 12 13  1  0
 13 14  1  0
 14 15  1  0
 14 16  1  0
 16 17  2  0
 16 18  1  0
 18 19  1  0
 19 20  2  0
 20 21  1  0
 21 22  1  0
 11 23  1  0
 23 24  1  0
 23 25  1  0
  7  3  2  0
 22 18  2  0
  1 26  1  0
  1 27  1  0
  1 28  1  0
  2 29  1  0
  2 30  1  0
  5 31  1  0
  6 32  1  0
 10 33  1  0
 11 34  1  0
 12 35  1  0
 12 36  1  0
 13 37  1  0
 13 38  1  0
 15 39  1  0
 15 40  1  0
 15 41  1  0
 19 42  1  0
 20 43  1  0
 21 44  1  0
 23 45  1  0
 24 46  1  0
 24 47  1  0
 24 48  1  0
 25 49  1  0
 25 50  1  0
 25 51  1  0
M  END
>  <Energy>  (154) 
92.548458015128503

>  <compound_id>  (154) 
10628

>  <target_id>  (154) 
1

>  <reference_id>  (154) 
96

>  <inspiration_ids>  (154) 
[35, 96]

>  <energy_score>  (154) 
41.677529096538706

>  <distance_score>  (154) 
6.0653284630197675

>  <path>  (154) 
/opt/xchem-fragalysis-2/maxwin/BulkDock/SCRATCH/511017/C10628-P96/C10628-P96.minimised.mol

>  <scratch_subdir>  (154) 
/opt/xchem-fragalysis-2/maxwin/BulkDock/SCRATCH/511017/C10628-P96

>  <fragmenstein_runtime>  (154) 
14.382850646972656

>  <fragmenstein_outcome>  (154) 
too moved

>  <fragmenstein_mode>  (154) 
expansion

>  <fragmenstein_error>  (154) 


$$$$
C10629-P35
     RDKit          3D

 44 45  0  0  0  0  0  0  0  0999 V2000
  -12.4567  -23.5208   31.8225 C   0  0  0  0  0  0  0  0  0  0  0  0
  -11.0012  -23.4857   31.8156 N   0  0  0  0  0  0  0  0  0  0  0  0
  -10.4384  -24.7497   31.3467 C   0  0  0  0  0  0  0  0  0  0  0  0
  -10.7066  -25.1009   29.9005 C   0  0  0  0  0  0  0  0  0  0  0  0
  -10.4767  -26.3338   29.3080 C   0  0  0  0  0  0  0  0  0  0  0  0
  -10.8569  -26.3522   27.9960 N   0  0  0  0  0  0  0  0  0  0  0  0
  -11.2962  -25.1418   27.7595 C   0  0  0  0  0  0  0  0  0  0  0  0
  -11.2039  -24.3337   28.8644 N   0  0  0  0  0  0  0  0  0  0  0  0
  -11.6458  -22.9626   28.8127 C   0  0  0  0  0  0  0  0  0  0  0  0
  -10.4290  -22.9797   33.1085 C   0  0  0  0  0  0  0  0  0  0  0  0
   -9.9741  -21.4737   33.0766 C   0  0  0  0  0  0  0  0  0  0  0  0
  -10.4156  -20.9357   31.8190 O   0  0  0  0  0  0  0  0  0  0  0  0
  -10.4082  -20.4252   34.1416 C   0  0  0  0  0  0  0  0  0  0  0  0
  -11.8777  -20.4058   33.9826 N   0  0  0  0  0  0  0  0  0  0  0  0
  -11.7393  -19.1863   34.8664 C   0  0  0  0  0  0  0  0  0  0  0  0
  -12.8550  -21.2520   34.4863 C   0  0  0  0  0  0  0  0  0  0  0  0
  -12.7694  -22.1616   35.2523 O   0  0  0  0  0  0  0  0  0  0  0  0
  -14.1714  -20.9676   33.8369 C   0  0  0  0  0  0  0  0  0  0  0  0
  -15.2551  -20.1361   34.2171 C   0  0  0  0  0  0  0  0  0  0  0  0
  -16.2578  -20.4004   33.3097 C   0  0  0  0  0  0  0  0  0  0  0  0
  -15.7630  -21.3503   32.4688 N   0  0  0  0  0  0  0  0  0  0  0  0
  -14.4674  -21.5834   32.6738 N   0  0  0  0  0  0  0  0  0  0  0  0
  -12.8813  -23.6201   32.8150 H   0  0  0  0  0  0  0  0  0  0  0  0
  -12.8102  -22.5965   31.3664 H   0  0  0  0  0  0  0  0  0  0  0  0
  -12.8857  -24.3314   31.2226 H   0  0  0  0  0  0  0  0  0  0  0  0
   -9.3469  -24.7303   31.4550 H   0  0  0  0  0  0  0  0  0  0  0  0
  -10.7875  -25.5724   31.9849 H   0  0  0  0  0  0  0  0  0  0  0  0
  -10.0615  -27.2171   29.7780 H   0  0  0  0  0  0  0  0  0  0  0  0
  -11.6847  -24.7874   26.8129 H   0  0  0  0  0  0  0  0  0  0  0  0
  -11.4333  -22.5587   27.8186 H   0  0  0  0  0  0  0  0  0  0  0  0
  -12.7234  -22.9565   28.9837 H   0  0  0  0  0  0  0  0  0  0  0  0
  -11.1426  -22.3407   29.5438 H   0  0  0  0  0  0  0  0  0  0  0  0
  -11.0640  -23.2003   33.9646 H   0  0  0  0  0  0  0  0  0  0  0  0
   -9.5245  -23.5526   33.3332 H   0  0  0  0  0  0  0  0  0  0  0  0
   -8.8837  -21.4461   33.1319 H   0  0  0  0  0  0  0  0  0  0  0  0
  -11.3883  -20.9956   31.8707 H   0  0  0  0  0  0  0  0  0  0  0  0
  -10.0920  -20.8175   35.1198 H   0  0  0  0  0  0  0  0  0  0  0  0
   -9.8592  -19.5197   33.8390 H   0  0  0  0  0  0  0  0  0  0  0  0
  -11.4846  -19.4417   35.9075 H   0  0  0  0  0  0  0  0  0  0  0  0
  -11.1420  -18.3468   34.4941 H   0  0  0  0  0  0  0  0  0  0  0  0
  -12.7488  -18.7578   34.9439 H   0  0  0  0  0  0  0  0  0  0  0  0
  -15.3281  -19.4856   35.0742 H   0  0  0  0  0  0  0  0  0  0  0  0
  -17.2778  -20.0533   33.2314 H   0  0  0  0  0  0  0  0  0  0  0  0
  -16.2263  -21.8445   31.7048 H   0  0  0  0  0  0  0  0  0  0  0  0
  1  2  1  0
  2  3  1  0
  3  4  1  0
  4  5  2  0
  5  6  1  0
  6  7  2  0
  7  8  1  0
  8  9  1  0
  2 10  1  0
 10 11  1  0
 11 12  1  0
 11 13  1  0
 13 14  1  0
 14 15  1  0
 14 16  1  0
 16 17  2  0
 16 18  1  0
 18 19  1  0
 19 20  2  0
 20 21  1  0
 21 22  1  0
  8  4  1  0
 22 18  2  0
  1 23  1  0
  1 24  1  0
  1 25  1  0
  3 26  1  0
  3 27  1  0
  5 28  1  0
  7 29  1  0
  9 30  1  0
  9 31  1  0
  9 32  1  0
 10 33  1  0
 10 34  1  0
 11 35  1  0
 12 36  1  0
 13 37  1  0
 13 38  1  0
 15 39  1  0
 15 40  1  0
 15 41  1  0
 19 42  1  0
 20 43  1  0
 21 44  1  0
M  END
>  <Energy>  (155) 
175.6748439039778

>  <compound_id>  (155) 
10629

>  <target_id>  (155) 
1

>  <reference_id>  (155) 
35

>  <inspiration_ids>  (155) 
[35, 96]

>  <energy_score>  (155) 
57.70401361140614

>  <distance_score>  (155) 
4.445243761606411

>  <path>  (155) 
/opt/xchem-fragalysis-2/maxwin/BulkDock/SCRATCH/511017/C10629-P35/C10629-P35.minimised.mol

>  <scratch_subdir>  (155) 
/opt/xchem-fragalysis-2/maxwin/BulkDock/SCRATCH/511017/C10629-P35

>  <fragmenstein_runtime>  (155) 
12.145861625671387

>  <fragmenstein_outcome>  (155) 
too moved

>  <fragmenstein_mode>  (155) 
expansion

>  <fragmenstein_error>  (155) 


$$$$
C10629-P96
     RDKit          3D

 44 45  0  0  0  0  0  0  0  0999 V2000
  -11.0730  -20.9264   28.6453 C   0  0  0  0  0  0  0  0  0  0  0  0
  -11.5411  -22.1399   29.2864 N   0  0  0  0  0  0  0  0  0  0  0  0
  -10.5284  -23.1805   29.0847 C   0  0  0  0  0  0  0  0  0  0  0  0
  -11.0017  -24.5855   28.8772 C   0  0  0  0  0  0  0  0  0  0  0  0
  -10.2811  -25.5843   28.2463 C   0  0  0  0  0  0  0  0  0  0  0  0
  -10.9117  -26.7916   28.2949 N   0  0  0  0  0  0  0  0  0  0  0  0
  -12.0384  -26.5494   28.9090 C   0  0  0  0  0  0  0  0  0  0  0  0
  -12.1361  -25.2397   29.2924 N   0  0  0  0  0  0  0  0  0  0  0  0
  -13.2541  -24.7709   30.0566 C   0  0  0  0  0  0  0  0  0  0  0  0
  -11.8770  -21.8483   30.6915 C   0  0  0  0  0  0  0  0  0  0  0  0
  -10.9560  -20.9953   31.6275 C   0  0  0  0  0  0  0  0  0  0  0  0
  -10.9452  -19.6442   31.2845 O   0  0  0  0  0  0  0  0  0  0  0  0
  -11.2398  -21.2231   33.1494 C   0  0  0  0  0  0  0  0  0  0  0  0
  -10.6955  -22.5810   33.1719 N   0  0  0  0  0  0  0  0  0  0  0  0
  -12.1165  -22.9108   33.4657 C   0  0  0  0  0  0  0  0  0  0  0  0
   -9.8403  -23.2251   34.1016 C   0  0  0  0  0  0  0  0  0  0  0  0
   -9.4138  -22.8544   35.1576 O   0  0  0  0  0  0  0  0  0  0  0  0
   -9.4280  -24.4826   33.4888 C   0  0  0  0  0  0  0  0  0  0  0  0
   -9.7803  -24.8737   32.1803 C   0  0  0  0  0  0  0  0  0  0  0  0
   -8.6888  -25.5453   31.7536 C   0  0  0  0  0  0  0  0  0  0  0  0
   -7.9274  -25.7829   32.8518 N   0  0  0  0  0  0  0  0  0  0  0  0
   -8.4407  -25.2498   33.9652 N   0  0  0  0  0  0  0  0  0  0  0  0
  -11.0460  -21.0638   27.5645 H   0  0  0  0  0  0  0  0  0  0  0  0
  -11.7383  -20.1001   28.8881 H   0  0  0  0  0  0  0  0  0  0  0  0
  -10.0723  -20.6370   28.9547 H   0  0  0  0  0  0  0  0  0  0  0  0
   -9.9563  -22.9517   28.1719 H   0  0  0  0  0  0  0  0  0  0  0  0
   -9.7787  -23.1582   29.8826 H   0  0  0  0  0  0  0  0  0  0  0  0
   -9.3052  -25.4925   27.7966 H   0  0  0  0  0  0  0  0  0  0  0  0
  -12.8084  -27.2825   29.1136 H   0  0  0  0  0  0  0  0  0  0  0  0
  -13.5016  -23.7642   29.7449 H   0  0  0  0  0  0  0  0  0  0  0  0
  -14.1117  -25.4255   29.8806 H   0  0  0  0  0  0  0  0  0  0  0  0
  -12.9963  -24.8130   31.1157 H   0  0  0  0  0  0  0  0  0  0  0  0
  -12.0204  -22.8299   31.1181 H   0  0  0  0  0  0  0  0  0  0  0  0
  -12.8625  -21.3768   30.7132 H   0  0  0  0  0  0  0  0  0  0  0  0
   -9.9477  -21.3567   31.4634 H   0  0  0  0  0  0  0  0  0  0  0  0
  -10.3210  -19.1719   31.8634 H   0  0  0  0  0  0  0  0  0  0  0  0
  -10.5646  -20.5912   33.7046 H   0  0  0  0  0  0  0  0  0  0  0  0
  -12.2339  -20.8559   33.4660 H   0  0  0  0  0  0  0  0  0  0  0  0
  -12.3175  -22.7747   34.5345 H   0  0  0  0  0  0  0  0  0  0  0  0
  -12.2005  -23.9574   33.1879 H   0  0  0  0  0  0  0  0  0  0  0  0
  -12.9499  -22.4930   32.8735 H   0  0  0  0  0  0  0  0  0  0  0  0
  -10.5534  -24.4837   31.5495 H   0  0  0  0  0  0  0  0  0  0  0  0
   -8.4031  -25.8259   30.7576 H   0  0  0  0  0  0  0  0  0  0  0  0
   -7.0335  -26.2632   32.9077 H   0  0  0  0  0  0  0  0  0  0  0  0
  1  2  1  0
  2  3  1  0
  3  4  1  0
  4  5  2  0
  5  6  1  0
  6  7  2  0
  7  8  1  0
  8  9  1  0
  2 10  1  0
 10 11  1  0
 11 12  1  0
 11 13  1  0
 13 14  1  0
 14 15  1  0
 14 16  1  0
 16 17  2  0
 16 18  1  0
 18 19  1  0
 19 20  2  0
 20 21  1  0
 21 22  1  0
  8  4  1  0
 22 18  2  0
  1 23  1  0
  1 24  1  0
  1 25  1  0
  3 26  1  0
  3 27  1  0
  5 28  1  0
  7 29  1  0
  9 30  1  0
  9 31  1  0
  9 32  1  0
 10 33  1  0
 10 34  1  0
 11 35  1  0
 12 36  1  0
 13 37  1  0
 13 38  1  0
 15 39  1  0
 15 40  1  0
 15 41  1  0
 19 42  1  0
 20 43  1  0
 21 44  1  0
M  END
>  <Energy>  (156) 
200.64812854312046

>  <compound_id>  (156) 
10629

>  <target_id>  (156) 
1

>  <reference_id>  (156) 
96

>  <inspiration_ids>  (156) 
[35, 96]

>  <energy_score>  (156) 
82.67729825054658

>  <distance_score>  (156) 
2.3176506814684834

>  <path>  (156) 
/opt/xchem-fragalysis-2/maxwin/BulkDock/SCRATCH/511017/C10629-P96/C10629-P96.minimised.mol

>  <scratch_subdir>  (156) 
/opt/xchem-fragalysis-2/maxwin/BulkDock/SCRATCH/511017/C10629-P96

>  <fragmenstein_runtime>  (156) 
8.702070474624634

>  <fragmenstein_outcome>  (156) 
too moved

>  <fragmenstein_mode>  (156) 
expansion

>  <fragmenstein_error>  (156) 


$$$$
C10630-P35
     RDKit          3D

 45 46  0  0  0  0  0  0  0  0999 V2000
  -15.0520  -27.8964   26.1315 C   0  0  0  0  0  0  0  0  0  0  0  0
  -13.8735  -27.2901   26.7761 C   0  0  0  0  0  0  0  0  0  0  0  0
  -13.5353  -25.9612   26.8168 C   0  0  0  0  0  0  0  0  0  0  0  0
  -12.4446  -25.8872   27.6401 N   0  0  0  0  0  0  0  0  0  0  0  0
  -11.8481  -24.6433   28.1483 C   0  0  0  0  0  0  0  0  0  0  0  0
  -10.4399  -24.9045   28.7172 C   0  0  0  0  0  0  0  0  0  0  0  0
  -11.7075  -23.6306   27.0036 C   0  0  0  0  0  0  0  0  0  0  0  0
  -12.7676  -24.0805   29.2942 C   0  0  0  0  0  0  0  0  0  0  0  0
  -13.7950  -24.6412   29.5421 O   0  0  0  0  0  0  0  0  0  0  0  0
  -12.1271  -22.9714   29.9420 N   0  0  0  0  0  0  0  0  0  0  0  0
  -12.4716  -22.2472   31.1497 C   0  0  0  0  0  0  0  0  0  0  0  0
  -11.2799  -21.4405   31.6209 C   0  0  0  0  0  0  0  0  0  0  0  0
  -12.9428  -23.1387   32.2806 C   0  0  0  0  0  0  0  0  0  0  0  0
  -12.0915  -24.2768   32.3206 N   0  0  0  0  0  0  0  0  0  0  0  0
  -10.7949  -24.4549   32.8750 C   0  0  0  0  0  0  0  0  0  0  0  0
  -10.1145  -23.7151   33.5214 O   0  0  0  0  0  0  0  0  0  0  0  0
  -10.2335  -25.7696   32.4514 C   0  0  0  0  0  0  0  0  0  0  0  0
  -10.7939  -26.8003   31.6334 C   0  0  0  0  0  0  0  0  0  0  0  0
   -9.7506  -27.6368   31.3325 C   0  0  0  0  0  0  0  0  0  0  0  0
   -8.7116  -27.2012   32.0953 N   0  0  0  0  0  0  0  0  0  0  0  0
   -8.9708  -26.0798   32.7596 N   0  0  0  0  0  0  0  0  0  0  0  0
  -12.1302  -27.1681   27.9989 C   0  0  0  0  0  0  0  0  0  0  0  0
  -12.9559  -28.0388   27.4675 N   0  0  0  0  0  0  0  0  0  0  0  0
  -15.0857  -27.6511   25.0656 H   0  0  0  0  0  0  0  0  0  0  0  0
  -15.9706  -27.5202   26.5938 H   0  0  0  0  0  0  0  0  0  0  0  0
  -15.0494  -28.9851   26.2405 H   0  0  0  0  0  0  0  0  0  0  0  0
  -14.0357  -25.0977   26.4050 H   0  0  0  0  0  0  0  0  0  0  0  0
  -10.4695  -25.1351   29.7766 H   0  0  0  0  0  0  0  0  0  0  0  0
   -9.9340  -25.7318   28.2159 H   0  0  0  0  0  0  0  0  0  0  0  0
   -9.8092  -24.0198   28.6148 H   0  0  0  0  0  0  0  0  0  0  0  0
  -11.3157  -22.6708   27.3526 H   0  0  0  0  0  0  0  0  0  0  0  0
  -12.6636  -23.4180   26.5257 H   0  0  0  0  0  0  0  0  0  0  0  0
  -11.0417  -24.0159   26.2236 H   0  0  0  0  0  0  0  0  0  0  0  0
  -11.2287  -22.8144   29.5128 H   0  0  0  0  0  0  0  0  0  0  0  0
  -13.3179  -21.6400   30.8799 H   0  0  0  0  0  0  0  0  0  0  0  0
  -11.5439  -20.7594   32.4333 H   0  0  0  0  0  0  0  0  0  0  0  0
  -10.4778  -22.0612   32.0016 H   0  0  0  0  0  0  0  0  0  0  0  0
  -10.8377  -20.9130   30.7823 H   0  0  0  0  0  0  0  0  0  0  0  0
  -12.9231  -22.6148   33.2411 H   0  0  0  0  0  0  0  0  0  0  0  0
  -13.9600  -23.5012   32.1000 H   0  0  0  0  0  0  0  0  0  0  0  0
  -12.3929  -25.1439   31.9058 H   0  0  0  0  0  0  0  0  0  0  0  0
  -11.7914  -26.8805   31.2247 H   0  0  0  0  0  0  0  0  0  0  0  0
   -9.6628  -28.5105   30.7019 H   0  0  0  0  0  0  0  0  0  0  0  0
   -7.7851  -27.6134   32.2148 H   0  0  0  0  0  0  0  0  0  0  0  0
  -11.3107  -27.4314   28.6530 H   0  0  0  0  0  0  0  0  0  0  0  0
  1  2  1  0
  2  3  2  0
  3  4  1  0
  4  5  1  0
  5  6  1  0
  5  7  1  0
  5  8  1  0
  8  9  2  0
  8 10  1  0
 10 11  1  0
 11 12  1  0
 11 13  1  0
 13 14  1  0
 14 15  1  0
 15 16  2  0
 15 17  1  0
 17 18  1  0
 18 19  2  0
 19 20  1  0
 20 21  1  0
  4 22  1  0
 22 23  2  0
 23  2  1  0
 21 17  2  0
  1 24  1  0
  1 25  1  0
  1 26  1  0
  3 27  1  0
  6 28  1  0
  6 29  1  0
  6 30  1  0
  7 31  1  0
  7 32  1  0
  7 33  1  0
 10 34  1  0
 11 35  1  0
 12 36  1  0
 12 37  1  0
 12 38  1  0
 13 39  1  0
 13 40  1  0
 14 41  1  0
 18 42  1  0
 19 43  1  0
 20 44  1  0
 22 45  1  0
M  END
>  <Energy>  (157) 
85.803341944036546

>  <compound_id>  (157) 
10630

>  <target_id>  (157) 
1

>  <reference_id>  (157) 
35

>  <inspiration_ids>  (157) 
[35, 96]

>  <energy_score>  (157) 
-17.898207863556536

>  <distance_score>  (157) 
3.840848496821728

>  <path>  (157) 
/opt/xchem-fragalysis-2/maxwin/BulkDock/SCRATCH/511017/C10630-P35/C10630-P35.minimised.mol

>  <scratch_subdir>  (157) 
/opt/xchem-fragalysis-2/maxwin/BulkDock/SCRATCH/511017/C10630-P35

>  <fragmenstein_runtime>  (157) 
8.769329071044922

>  <fragmenstein_outcome>  (157) 
too moved

>  <fragmenstein_mode>  (157) 
expansion

>  <fragmenstein_error>  (157) 


$$$$
C10630-P96
     RDKit          3D

 45 46  0  0  0  0  0  0  0  0999 V2000
  -10.8403  -24.8531   26.8512 C   0  0  0  0  0  0  0  0  0  0  0  0
  -10.6454  -24.1053   28.1097 C   0  0  0  0  0  0  0  0  0  0  0  0
   -9.9535  -24.4442   29.2534 C   0  0  0  0  0  0  0  0  0  0  0  0
  -10.1533  -23.4003   30.1363 N   0  0  0  0  0  0  0  0  0  0  0  0
   -9.6815  -23.3419   31.5386 C   0  0  0  0  0  0  0  0  0  0  0  0
  -10.2379  -24.4847   32.3515 C   0  0  0  0  0  0  0  0  0  0  0  0
   -8.1771  -23.6080   31.6056 C   0  0  0  0  0  0  0  0  0  0  0  0
  -10.0731  -22.0180   32.3007 C   0  0  0  0  0  0  0  0  0  0  0  0
   -9.2549  -21.3421   32.7687 O   0  0  0  0  0  0  0  0  0  0  0  0
  -11.5977  -21.8461   32.2539 N   0  0  0  0  0  0  0  0  0  0  0  0
  -12.4633  -20.8308   32.8694 C   0  0  0  0  0  0  0  0  0  0  0  0
  -12.3837  -20.9286   34.3734 C   0  0  0  0  0  0  0  0  0  0  0  0
  -13.9413  -21.0372   32.4124 C   0  0  0  0  0  0  0  0  0  0  0  0
  -13.9802  -22.3956   31.9664 N   0  0  0  0  0  0  0  0  0  0  0  0
  -14.5848  -23.6306   32.6119 C   0  0  0  0  0  0  0  0  0  0  0  0
  -15.2207  -23.7417   33.5769 O   0  0  0  0  0  0  0  0  0  0  0  0
  -14.1067  -24.7612   31.7938 C   0  0  0  0  0  0  0  0  0  0  0  0
  -14.2406  -26.1389   32.0302 C   0  0  0  0  0  0  0  0  0  0  0  0
  -13.3411  -26.7466   31.1860 C   0  0  0  0  0  0  0  0  0  0  0  0
  -12.7605  -25.7521   30.4702 N   0  0  0  0  0  0  0  0  0  0  0  0
  -13.1569  -24.5354   30.8562 N   0  0  0  0  0  0  0  0  0  0  0  0
  -10.8408  -22.4446   29.4376 C   0  0  0  0  0  0  0  0  0  0  0  0
  -11.2110  -22.8724   28.2550 N   0  0  0  0  0  0  0  0  0  0  0  0
  -10.1757  -25.7186   26.8114 H   0  0  0  0  0  0  0  0  0  0  0  0
  -10.6294  -24.2123   25.9904 H   0  0  0  0  0  0  0  0  0  0  0  0
  -11.8731  -25.2064   26.7754 H   0  0  0  0  0  0  0  0  0  0  0  0
   -9.3642  -25.3110   29.5159 H   0  0  0  0  0  0  0  0  0  0  0  0
   -9.7703  -24.5076   33.3439 H   0  0  0  0  0  0  0  0  0  0  0  0
  -11.3031  -24.3573   32.5109 H   0  0  0  0  0  0  0  0  0  0  0  0
  -10.0875  -25.4665   31.8877 H   0  0  0  0  0  0  0  0  0  0  0  0
   -7.9726  -24.6525   31.8658 H   0  0  0  0  0  0  0  0  0  0  0  0
   -7.6645  -23.0213   32.3704 H   0  0  0  0  0  0  0  0  0  0  0  0
   -7.7172  -23.4512   30.6349 H   0  0  0  0  0  0  0  0  0  0  0  0
  -12.0172  -22.6666   31.8375 H   0  0  0  0  0  0  0  0  0  0  0  0
  -12.0792  -19.8536   32.5743 H   0  0  0  0  0  0  0  0  0  0  0  0
  -11.3557  -20.8667   34.7278 H   0  0  0  0  0  0  0  0  0  0  0  0
  -12.9493  -20.1110   34.8294 H   0  0  0  0  0  0  0  0  0  0  0  0
  -12.7938  -21.8850   34.7096 H   0  0  0  0  0  0  0  0  0  0  0  0
  -14.6668  -20.8707   33.2134 H   0  0  0  0  0  0  0  0  0  0  0  0
  -14.1840  -20.4023   31.5625 H   0  0  0  0  0  0  0  0  0  0  0  0
  -13.5512  -22.6528   31.0774 H   0  0  0  0  0  0  0  0  0  0  0  0
  -14.8721  -26.6224   32.7638 H   0  0  0  0  0  0  0  0  0  0  0  0
  -13.0913  -27.7859   31.0238 H   0  0  0  0  0  0  0  0  0  0  0  0
  -12.0907  -25.8256   29.7106 H   0  0  0  0  0  0  0  0  0  0  0  0
  -11.0617  -21.4553   29.8167 H   0  0  0  0  0  0  0  0  0  0  0  0
  1  2  1  0
  2  3  2  0
  3  4  1  0
  4  5  1  0
  5  6  1  0
  5  7  1  0
  5  8  1  0
  8  9  2  0
  8 10  1  0
 10 11  1  0
 11 12  1  0
 11 13  1  0
 13 14  1  0
 14 15  1  0
 15 16  2  0
 15 17  1  0
 17 18  1  0
 18 19  2  0
 19 20  1  0
 20 21  1  0
  4 22  1  0
 22 23  2  0
 23  2  1  0
 21 17  2  0
  1 24  1  0
  1 25  1  0
  1 26  1  0
  3 27  1  0
  6 28  1  0
  6 29  1  0
  6 30  1  0
  7 31  1  0
  7 32  1  0
  7 33  1  0
 10 34  1  0
 11 35  1  0
 12 36  1  0
 12 37  1  0
 12 38  1  0
 13 39  1  0
 13 40  1  0
 14 41  1  0
 18 42  1  0
 19 43  1  0
 20 44  1  0
 22 45  1  0
M  END
>  <Energy>  (158) 
92.772575656384674

>  <compound_id>  (158) 
10630

>  <target_id>  (158) 
1

>  <reference_id>  (158) 
96

>  <inspiration_ids>  (158) 
[35, 96]

>  <energy_score>  (158) 
-9.303876624753798

>  <distance_score>  (158) 
2.9816093788711195

>  <path>  (158) 
/opt/xchem-fragalysis-2/maxwin/BulkDock/SCRATCH/511017/C10630-P96/C10630-P96.minimised.mol

>  <scratch_subdir>  (158) 
/opt/xchem-fragalysis-2/maxwin/BulkDock/SCRATCH/511017/C10630-P96

>  <fragmenstein_runtime>  (158) 
10.587750434875488

>  <fragmenstein_outcome>  (158) 
too moved

>  <fragmenstein_mode>  (158) 
expansion

>  <fragmenstein_error>  (158) 


$$$$
C10632-P35
     RDKit          3D

 45 46  0  0  0  0  0  0  0  0999 V2000
  -15.1212  -23.2507   32.5600 C   0  0  0  0  0  0  0  0  0  0  0  0
  -14.0689  -22.8610   31.5329 C   0  0  0  0  0  0  0  0  0  0  0  0
  -12.9897  -21.9034   32.1074 C   0  0  0  0  0  0  0  0  0  0  0  0
  -12.3642  -22.1745   33.4417 C   0  0  0  0  0  0  0  0  0  0  0  0
  -11.5292  -20.9924   33.9327 C   0  0  0  0  0  0  0  0  0  0  0  0
  -11.6238  -23.3662   33.2841 N   0  0  0  0  0  0  0  0  0  0  0  0
  -10.1383  -23.6238   33.4003 C   0  0  0  0  0  0  0  0  0  0  0  0
   -9.2774  -22.9202   33.7193 O   0  0  0  0  0  0  0  0  0  0  0  0
   -9.9037  -24.9907   32.9136 C   0  0  0  0  0  0  0  0  0  0  0  0
  -10.4947  -25.6111   31.7937 C   0  0  0  0  0  0  0  0  0  0  0  0
   -9.8214  -26.7890   31.6200 C   0  0  0  0  0  0  0  0  0  0  0  0
   -8.9057  -26.8196   32.6267 N   0  0  0  0  0  0  0  0  0  0  0  0
   -9.0883  -25.8529   33.5231 N   0  0  0  0  0  0  0  0  0  0  0  0
  -13.6546  -23.9976   30.7065 N   0  0  0  0  0  0  0  0  0  0  0  0
  -14.4972  -25.1622   30.0842 C   0  0  0  0  0  0  0  0  0  0  0  0
  -15.6340  -25.4263   30.2053 O   0  0  0  0  0  0  0  0  0  0  0  0
  -13.6163  -26.1097   29.2674 C   0  0  0  0  0  0  0  0  0  0  0  0
  -13.2258  -25.6409   27.8561 C   0  0  0  0  0  0  0  0  0  0  0  0
  -11.9528  -24.9777   27.8913 N   0  0  0  0  0  0  0  0  0  0  0  0
  -10.8163  -25.6021   28.3022 C   0  0  0  0  0  0  0  0  0  0  0  0
  -10.0883  -24.5848   28.8473 C   0  0  0  0  0  0  0  0  0  0  0  0
  -10.6510  -23.3684   28.5816 N   0  0  0  0  0  0  0  0  0  0  0  0
  -11.7509  -23.6361   27.9265 C   0  0  0  0  0  0  0  0  0  0  0  0
  -14.7104  -23.9706   33.2565 H   0  0  0  0  0  0  0  0  0  0  0  0
  -15.9978  -23.7163   32.1020 H   0  0  0  0  0  0  0  0  0  0  0  0
  -15.4740  -22.3765   33.1159 H   0  0  0  0  0  0  0  0  0  0  0  0
  -14.5737  -22.2173   30.8228 H   0  0  0  0  0  0  0  0  0  0  0  0
  -12.2398  -21.6835   31.3388 H   0  0  0  0  0  0  0  0  0  0  0  0
  -13.5773  -21.0218   32.3290 H   0  0  0  0  0  0  0  0  0  0  0  0
  -13.1387  -22.3447   34.1869 H   0  0  0  0  0  0  0  0  0  0  0  0
  -12.1584  -20.1106   34.0904 H   0  0  0  0  0  0  0  0  0  0  0  0
  -10.7461  -20.7235   33.2154 H   0  0  0  0  0  0  0  0  0  0  0  0
  -11.0487  -21.2251   34.8894 H   0  0  0  0  0  0  0  0  0  0  0  0
  -12.0804  -24.1877   32.8945 H   0  0  0  0  0  0  0  0  0  0  0  0
  -11.2501  -25.2135   31.1519 H   0  0  0  0  0  0  0  0  0  0  0  0
   -9.8625  -27.5631   30.8685 H   0  0  0  0  0  0  0  0  0  0  0  0
   -8.1625  -27.4980   32.8078 H   0  0  0  0  0  0  0  0  0  0  0  0
  -12.6811  -24.1134   30.4573 H   0  0  0  0  0  0  0  0  0  0  0  0
  -12.7651  -26.4101   29.8850 H   0  0  0  0  0  0  0  0  0  0  0  0
  -14.2104  -27.0269   29.1451 H   0  0  0  0  0  0  0  0  0  0  0  0
  -13.1099  -26.5049   27.1908 H   0  0  0  0  0  0  0  0  0  0  0  0
  -13.9738  -24.9823   27.4162 H   0  0  0  0  0  0  0  0  0  0  0  0
  -10.6881  -26.6760   28.3203 H   0  0  0  0  0  0  0  0  0  0  0  0
   -9.1779  -24.7041   29.4126 H   0  0  0  0  0  0  0  0  0  0  0  0
  -12.4470  -22.9088   27.5396 H   0  0  0  0  0  0  0  0  0  0  0  0
  1  2  1  0
  2  3  1  0
  3  4  1  0
  4  5  1  0
  4  6  1  0
  6  7  1  0
  7  8  2  0
  7  9  1  0
  9 10  1  0
 10 11  2  0
 11 12  1  0
 12 13  1  0
  2 14  1  0
 14 15  1  0
 15 16  2  0
 15 17  1  0
 17 18  1  0
 18 19  1  0
 19 20  1  0
 20 21  2  0
 21 22  1  0
 22 23  2  0
 13  9  2  0
 23 19  1  0
  1 24  1  0
  1 25  1  0
  1 26  1  0
  2 27  1  0
  3 28  1  0
  3 29  1  0
  4 30  1  0
  5 31  1  0
  5 32  1  0
  5 33  1  0
  6 34  1  0
 10 35  1  0
 11 36  1  0
 12 37  1  0
 14 38  1  0
 17 39  1  0
 17 40  1  0
 18 41  1  0
 18 42  1  0
 20 43  1  0
 21 44  1  0
 23 45  1  0
M  END
>  <Energy>  (159) 
66.877056726673587

>  <compound_id>  (159) 
10632

>  <target_id>  (159) 
1

>  <reference_id>  (159) 
35

>  <inspiration_ids>  (159) 
[35, 96]

>  <energy_score>  (159) 
44.406121580283184

>  <distance_score>  (159) 
2.263943119078633

>  <path>  (159) 
/opt/xchem-fragalysis-2/maxwin/BulkDock/SCRATCH/511017/C10632-P35/C10632-P35.minimised.mol

>  <scratch_subdir>  (159) 
/opt/xchem-fragalysis-2/maxwin/BulkDock/SCRATCH/511017/C10632-P35

>  <fragmenstein_runtime>  (159) 
5.378993034362793

>  <fragmenstein_outcome>  (159) 
too moved

>  <fragmenstein_mode>  (159) 
expansion

>  <fragmenstein_error>  (159) 


$$$$
C10632-P96
     RDKit          3D

 45 46  0  0  0  0  0  0  0  0999 V2000
  -14.2654  -22.4523   32.8150 C   0  0  0  0  0  0  0  0  0  0  0  0
  -13.3442  -22.0683   31.6770 C   0  0  0  0  0  0  0  0  0  0  0  0
  -12.3517  -20.9256   31.9980 C   0  0  0  0  0  0  0  0  0  0  0  0
  -11.4010  -20.9536   33.1751 C   0  0  0  0  0  0  0  0  0  0  0  0
  -12.1152  -20.8587   34.5002 C   0  0  0  0  0  0  0  0  0  0  0  0
  -10.5625  -22.0791   32.9859 N   0  0  0  0  0  0  0  0  0  0  0  0
   -9.8830  -23.0007   34.0095 C   0  0  0  0  0  0  0  0  0  0  0  0
   -9.8408  -22.9373   35.1683 O   0  0  0  0  0  0  0  0  0  0  0  0
   -9.3285  -24.1196   33.2866 C   0  0  0  0  0  0  0  0  0  0  0  0
   -9.8101  -24.5925   32.0568 C   0  0  0  0  0  0  0  0  0  0  0  0
   -8.8547  -25.4484   31.6390 C   0  0  0  0  0  0  0  0  0  0  0  0
   -8.0165  -25.6277   32.6899 N   0  0  0  0  0  0  0  0  0  0  0  0
   -8.3435  -24.8933   33.7482 N   0  0  0  0  0  0  0  0  0  0  0  0
  -12.8679  -23.2161   30.8995 N   0  0  0  0  0  0  0  0  0  0  0  0
  -13.5782  -24.5621   30.5374 C   0  0  0  0  0  0  0  0  0  0  0  0
  -14.6201  -24.9852   30.8719 O   0  0  0  0  0  0  0  0  0  0  0  0
  -12.7014  -25.4308   29.6119 C   0  0  0  0  0  0  0  0  0  0  0  0
  -12.4384  -24.9385   28.1769 C   0  0  0  0  0  0  0  0  0  0  0  0
  -11.2418  -24.1338   28.1435 N   0  0  0  0  0  0  0  0  0  0  0  0
   -9.9957  -24.6034   28.4312 C   0  0  0  0  0  0  0  0  0  0  0  0
   -9.3569  -23.5197   28.9763 C   0  0  0  0  0  0  0  0  0  0  0  0
  -10.1380  -22.4030   28.9042 N   0  0  0  0  0  0  0  0  0  0  0  0
  -11.2139  -22.7813   28.2626 C   0  0  0  0  0  0  0  0  0  0  0  0
  -13.7215  -23.0553   33.5233 H   0  0  0  0  0  0  0  0  0  0  0  0
  -15.1202  -23.0434   32.4746 H   0  0  0  0  0  0  0  0  0  0  0  0
  -14.6662  -21.5713   33.3258 H   0  0  0  0  0  0  0  0  0  0  0  0
  -13.9905  -21.5775   30.9681 H   0  0  0  0  0  0  0  0  0  0  0  0
  -11.7845  -20.7068   31.0824 H   0  0  0  0  0  0  0  0  0  0  0  0
  -12.9964  -20.0674   32.1966 H   0  0  0  0  0  0  0  0  0  0  0  0
  -10.7669  -20.0741   33.0661 H   0  0  0  0  0  0  0  0  0  0  0  0
  -12.8643  -20.0599   34.4960 H   0  0  0  0  0  0  0  0  0  0  0  0
  -11.4208  -20.6275   35.3067 H   0  0  0  0  0  0  0  0  0  0  0  0
  -12.6057  -21.7966   34.7542 H   0  0  0  0  0  0  0  0  0  0  0  0
  -10.3301  -22.3832   32.0523 H   0  0  0  0  0  0  0  0  0  0  0  0
  -10.6516  -24.2654   31.4891 H   0  0  0  0  0  0  0  0  0  0  0  0
   -8.6921  -25.8986   30.6827 H   0  0  0  0  0  0  0  0  0  0  0  0
   -7.1734  -26.1929   32.7408 H   0  0  0  0  0  0  0  0  0  0  0  0
  -11.9378  -23.2063   30.5012 H   0  0  0  0  0  0  0  0  0  0  0  0
  -11.7846  -25.6871   30.1498 H   0  0  0  0  0  0  0  0  0  0  0  0
  -13.2455  -26.3817   29.5153 H   0  0  0  0  0  0  0  0  0  0  0  0
  -12.2663  -25.7868   27.5050 H   0  0  0  0  0  0  0  0  0  0  0  0
  -13.2731  -24.3532   27.7854 H   0  0  0  0  0  0  0  0  0  0  0  0
   -9.7200  -25.6430   28.3447 H   0  0  0  0  0  0  0  0  0  0  0  0
   -8.3835  -23.4988   29.4452 H   0  0  0  0  0  0  0  0  0  0  0  0
  -12.0325  -22.1416   27.9878 H   0  0  0  0  0  0  0  0  0  0  0  0
  1  2  1  0
  2  3  1  0
  3  4  1  0
  4  5  1  0
  4  6  1  0
  6  7  1  0
  7  8  2  0
  7  9  1  0
  9 10  1  0
 10 11  2  0
 11 12  1  0
 12 13  1  0
  2 14  1  0
 14 15  1  0
 15 16  2  0
 15 17  1  0
 17 18  1  0
 18 19  1  0
 19 20  1  0
 20 21  2  0
 21 22  1  0
 22 23  2  0
 13  9  2  0
 23 19  1  0
  1 24  1  0
  1 25  1  0
  1 26  1  0
  2 27  1  0
  3 28  1  0
  3 29  1  0
  4 30  1  0
  5 31  1  0
  5 32  1  0
  5 33  1  0
  6 34  1  0
 10 35  1  0
 11 36  1  0
 12 37  1  0
 14 38  1  0
 17 39  1  0
 17 40  1  0
 18 41  1  0
 18 42  1  0
 20 43  1  0
 21 44  1  0
 23 45  1  0
M  END
>  <Energy>  (160) 
72.304352914197295

>  <compound_id>  (160) 
10632

>  <target_id>  (160) 
1

>  <reference_id>  (160) 
96

>  <inspiration_ids>  (160) 
[35, 96]

>  <energy_score>  (160) 
49.83341776780654

>  <distance_score>  (160) 
1.8578176420557897

>  <path>  (160) 
/opt/xchem-fragalysis-2/maxwin/BulkDock/SCRATCH/511017/C10632-P96/C10632-P96.minimised.mol

>  <scratch_subdir>  (160) 
/opt/xchem-fragalysis-2/maxwin/BulkDock/SCRATCH/511017/C10632-P96

>  <fragmenstein_runtime>  (160) 
7.031519889831543

>  <fragmenstein_outcome>  (160) 
too moved

>  <fragmenstein_mode>  (160) 
expansion

>  <fragmenstein_error>  (160) 


$$$$
C10633-P35
     RDKit          3D

 48 49  0  0  0  0  0  0  0  0999 V2000
  -12.3110  -25.2983   26.0222 C   0  0  0  0  0  0  0  0  0  0  0  0
  -12.2463  -25.3096   27.4943 C   0  0  0  0  0  0  0  0  0  0  0  0
  -11.1894  -25.6556   28.3056 C   0  0  0  0  0  0  0  0  0  0  0  0
  -11.6032  -25.3828   29.5822 N   0  0  0  0  0  0  0  0  0  0  0  0
  -10.8356  -25.5180   30.8475 C   0  0  0  0  0  0  0  0  0  0  0  0
   -9.3567  -25.7945   30.5567 C   0  0  0  0  0  0  0  0  0  0  0  0
  -11.3684  -26.7703   31.5538 C   0  0  0  0  0  0  0  0  0  0  0  0
  -10.9108  -24.1443   31.6597 C   0  0  0  0  0  0  0  0  0  0  0  0
  -11.4348  -23.2202   31.1022 O   0  0  0  0  0  0  0  0  0  0  0  0
  -10.2344  -24.2130   32.9347 N   0  0  0  0  0  0  0  0  0  0  0  0
  -10.0618  -23.2107   33.9815 C   0  0  0  0  0  0  0  0  0  0  0  0
   -9.5975  -21.8408   33.4620 C   0  0  0  0  0  0  0  0  0  0  0  0
  -10.2109  -20.5849   34.0623 C   0  0  0  0  0  0  0  0  0  0  0  0
   -9.9323  -20.4005   35.5461 C   0  0  0  0  0  0  0  0  0  0  0  0
  -11.6000  -20.7025   33.7509 N   0  0  0  0  0  0  0  0  0  0  0  0
  -12.6511  -21.3237   34.4449 C   0  0  0  0  0  0  0  0  0  0  0  0
  -12.6742  -21.8455   35.5133 O   0  0  0  0  0  0  0  0  0  0  0  0
  -13.8495  -21.3620   33.5813 C   0  0  0  0  0  0  0  0  0  0  0  0
  -15.1312  -20.8015   33.8083 C   0  0  0  0  0  0  0  0  0  0  0  0
  -15.8979  -21.2160   32.7488 C   0  0  0  0  0  0  0  0  0  0  0  0
  -15.0806  -21.9903   31.9795 N   0  0  0  0  0  0  0  0  0  0  0  0
  -13.8031  -21.9633   32.3788 N   0  0  0  0  0  0  0  0  0  0  0  0
  -12.9144  -24.9813   29.4933 C   0  0  0  0  0  0  0  0  0  0  0  0
  -13.3299  -24.9422   28.2484 N   0  0  0  0  0  0  0  0  0  0  0  0
  -13.3452  -25.1988   25.6780 H   0  0  0  0  0  0  0  0  0  0  0  0
  -11.9038  -26.2255   25.6076 H   0  0  0  0  0  0  0  0  0  0  0  0
  -11.7350  -24.4567   25.6251 H   0  0  0  0  0  0  0  0  0  0  0  0
  -10.2057  -26.0275   28.0675 H   0  0  0  0  0  0  0  0  0  0  0  0
   -8.9455  -25.0426   29.8849 H   0  0  0  0  0  0  0  0  0  0  0  0
   -9.2250  -26.7672   30.0717 H   0  0  0  0  0  0  0  0  0  0  0  0
   -8.7574  -25.8016   31.4705 H   0  0  0  0  0  0  0  0  0  0  0  0
  -12.4601  -26.7749   31.5911 H   0  0  0  0  0  0  0  0  0  0  0  0
  -10.9685  -26.8871   32.5641 H   0  0  0  0  0  0  0  0  0  0  0  0
  -11.1013  -27.6807   31.0005 H   0  0  0  0  0  0  0  0  0  0  0  0
   -9.9879  -25.1744   33.1257 H   0  0  0  0  0  0  0  0  0  0  0  0
   -9.3636  -23.5996   34.7233 H   0  0  0  0  0  0  0  0  0  0  0  0
  -11.0201  -23.1612   34.4802 H   0  0  0  0  0  0  0  0  0  0  0  0
   -8.5107  -21.7719   33.5054 H   0  0  0  0  0  0  0  0  0  0  0  0
   -9.8991  -21.7753   32.4156 H   0  0  0  0  0  0  0  0  0  0  0  0
   -9.8423  -19.7054   33.5270 H   0  0  0  0  0  0  0  0  0  0  0  0
   -8.8819  -20.1479   35.7109 H   0  0  0  0  0  0  0  0  0  0  0  0
  -10.5362  -19.5838   35.9563 H   0  0  0  0  0  0  0  0  0  0  0  0
  -10.1525  -21.3029   36.1248 H   0  0  0  0  0  0  0  0  0  0  0  0
  -11.9252  -20.4427   32.8257 H   0  0  0  0  0  0  0  0  0  0  0  0
  -15.4582  -20.2413   34.6707 H   0  0  0  0  0  0  0  0  0  0  0  0
  -16.9424  -21.0932   32.5035 H   0  0  0  0  0  0  0  0  0  0  0  0
  -15.3307  -22.4994   31.1308 H   0  0  0  0  0  0  0  0  0  0  0  0
  -13.5017  -24.7162   30.3652 H   0  0  0  0  0  0  0  0  0  0  0  0
  1  2  1  0
  2  3  2  0
  3  4  1  0
  4  5  1  0
  5  6  1  0
  5  7  1  0
  5  8  1  0
  8  9  2  0
  8 10  1  0
 10 11  1  0
 11 12  1  0
 12 13  1  0
 13 14  1  0
 13 15  1  0
 15 16  1  0
 16 17  2  0
 16 18  1  0
 18 19  1  0
 19 20  2  0
 20 21  1  0
 21 22  1  0
  4 23  1  0
 23 24  2  0
 24  2  1  0
 22 18  2  0
  1 25  1  0
  1 26  1  0
  1 27  1  0
  3 28  1  0
  6 29  1  0
  6 30  1  0
  6 31  1  0
  7 32  1  0
  7 33  1  0
  7 34  1  0
 10 35  1  0
 11 36  1  0
 11 37  1  0
 12 38  1  0
 12 39  1  0
 13 40  1  0
 14 41  1  0
 14 42  1  0
 14 43  1  0
 15 44  1  0
 19 45  1  0
 20 46  1  0
 21 47  1  0
 23 48  1  0
M  END
>  <Energy>  (161) 
72.876791281980729

>  <compound_id>  (161) 
10633

>  <target_id>  (161) 
1

>  <reference_id>  (161) 
35

>  <inspiration_ids>  (161) 
[35, 96]

>  <energy_score>  (161) 
-4.368480267650398

>  <distance_score>  (161) 
3.80853022972789

>  <path>  (161) 
/opt/xchem-fragalysis-2/maxwin/BulkDock/SCRATCH/511017/C10633-P35/C10633-P35.minimised.mol

>  <scratch_subdir>  (161) 
/opt/xchem-fragalysis-2/maxwin/BulkDock/SCRATCH/511017/C10633-P35

>  <fragmenstein_runtime>  (161) 
11.702963590621948

>  <fragmenstein_outcome>  (161) 
too moved

>  <fragmenstein_mode>  (161) 
expansion

>  <fragmenstein_error>  (161) 


$$$$
C10633-P96
     RDKit          3D

 48 49  0  0  0  0  0  0  0  0999 V2000
  -12.5859  -25.8880   26.3021 C   0  0  0  0  0  0  0  0  0  0  0  0
  -12.2120  -25.1762   27.5210 C   0  0  0  0  0  0  0  0  0  0  0  0
  -11.0023  -25.1051   28.1672 C   0  0  0  0  0  0  0  0  0  0  0  0
  -11.1620  -24.0559   29.0397 N   0  0  0  0  0  0  0  0  0  0  0  0
  -10.0806  -23.2071   29.5315 C   0  0  0  0  0  0  0  0  0  0  0  0
   -9.5739  -22.5352   28.2525 C   0  0  0  0  0  0  0  0  0  0  0  0
   -8.9381  -24.0426   30.1328 C   0  0  0  0  0  0  0  0  0  0  0  0
  -10.6406  -22.0402   30.4470 C   0  0  0  0  0  0  0  0  0  0  0  0
  -11.0395  -21.0495   29.9721 O   0  0  0  0  0  0  0  0  0  0  0  0
  -10.4605  -22.4391   31.9330 N   0  0  0  0  0  0  0  0  0  0  0  0
  -10.6432  -21.6712   33.1345 C   0  0  0  0  0  0  0  0  0  0  0  0
  -11.8282  -20.7031   33.1396 C   0  0  0  0  0  0  0  0  0  0  0  0
  -13.2261  -21.2864   32.7673 C   0  0  0  0  0  0  0  0  0  0  0  0
  -14.2535  -21.0364   33.8550 C   0  0  0  0  0  0  0  0  0  0  0  0
  -13.0867  -22.6686   32.4068 N   0  0  0  0  0  0  0  0  0  0  0  0
  -14.1281  -23.7769   32.3064 C   0  0  0  0  0  0  0  0  0  0  0  0
  -15.2595  -23.7751   32.5725 O   0  0  0  0  0  0  0  0  0  0  0  0
  -13.3745  -24.9705   31.8592 C   0  0  0  0  0  0  0  0  0  0  0  0
  -13.8792  -26.2390   31.5425 C   0  0  0  0  0  0  0  0  0  0  0  0
  -12.7895  -26.9905   31.1812 C   0  0  0  0  0  0  0  0  0  0  0  0
  -11.7128  -26.1778   31.2921 N   0  0  0  0  0  0  0  0  0  0  0  0
  -12.0170  -24.9497   31.7425 N   0  0  0  0  0  0  0  0  0  0  0  0
  -12.4671  -23.6836   29.0040 C   0  0  0  0  0  0  0  0  0  0  0  0
  -13.1311  -24.3804   28.1242 N   0  0  0  0  0  0  0  0  0  0  0  0
  -12.9501  -26.8914   26.5380 H   0  0  0  0  0  0  0  0  0  0  0  0
  -11.7326  -25.9420   25.6306 H   0  0  0  0  0  0  0  0  0  0  0  0
  -13.3906  -25.3643   25.7751 H   0  0  0  0  0  0  0  0  0  0  0  0
  -10.0474  -25.5626   27.9543 H   0  0  0  0  0  0  0  0  0  0  0  0
  -10.3397  -21.8715   27.8321 H   0  0  0  0  0  0  0  0  0  0  0  0
   -9.3327  -23.2533   27.4652 H   0  0  0  0  0  0  0  0  0  0  0  0
   -8.6713  -21.9576   28.4311 H   0  0  0  0  0  0  0  0  0  0  0  0
   -8.3825  -24.5836   29.3600 H   0  0  0  0  0  0  0  0  0  0  0  0
   -8.2231  -23.4245   30.6786 H   0  0  0  0  0  0  0  0  0  0  0  0
   -9.2969  -24.8034   30.8301 H   0  0  0  0  0  0  0  0  0  0  0  0
  -10.1665  -23.4079   31.9904 H   0  0  0  0  0  0  0  0  0  0  0  0
   -9.7307  -21.0863   33.1698 H   0  0  0  0  0  0  0  0  0  0  0  0
  -10.6817  -22.3626   33.9812 H   0  0  0  0  0  0  0  0  0  0  0  0
  -11.8727  -20.2094   34.1183 H   0  0  0  0  0  0  0  0  0  0  0  0
  -11.6066  -19.9011   32.4261 H   0  0  0  0  0  0  0  0  0  0  0  0
  -13.5778  -20.7826   31.8604 H   0  0  0  0  0  0  0  0  0  0  0  0
  -14.2920  -19.9766   34.1270 H   0  0  0  0  0  0  0  0  0  0  0  0
  -15.2568  -21.3308   33.5318 H   0  0  0  0  0  0  0  0  0  0  0  0
  -14.0074  -21.6148   34.7429 H   0  0  0  0  0  0  0  0  0  0  0  0
  -12.1733  -23.0404   32.1665 H   0  0  0  0  0  0  0  0  0  0  0  0
  -14.9125  -26.5578   31.5588 H   0  0  0  0  0  0  0  0  0  0  0  0
  -12.7017  -28.0127   30.8412 H   0  0  0  0  0  0  0  0  0  0  0  0
  -10.7470  -26.3975   31.0766 H   0  0  0  0  0  0  0  0  0  0  0  0
  -12.8848  -22.8819   29.5961 H   0  0  0  0  0  0  0  0  0  0  0  0
  1  2  1  0
  2  3  2  0
  3  4  1  0
  4  5  1  0
  5  6  1  0
  5  7  1  0
  5  8  1  0
  8  9  2  0
  8 10  1  0
 10 11  1  0
 11 12  1  0
 12 13  1  0
 13 14  1  0
 13 15  1  0
 15 16  1  0
 16 17  2  0
 16 18  1  0
 18 19  1  0
 19 20  2  0
 20 21  1  0
 21 22  1  0
  4 23  1  0
 23 24  2  0
 24  2  1  0
 22 18  2  0
  1 25  1  0
  1 26  1  0
  1 27  1  0
  3 28  1  0
  6 29  1  0
  6 30  1  0
  6 31  1  0
  7 32  1  0
  7 33  1  0
  7 34  1  0
 10 35  1  0
 11 36  1  0
 11 37  1  0
 12 38  1  0
 12 39  1  0
 13 40  1  0
 14 41  1  0
 14 42  1  0
 14 43  1  0
 15 44  1  0
 19 45  1  0
 20 46  1  0
 21 47  1  0
 23 48  1  0
M  END
>  <Energy>  (162) 
90.755977197178282

>  <compound_id>  (162) 
10633

>  <target_id>  (162) 
1

>  <reference_id>  (162) 
96

>  <inspiration_ids>  (162) 
[35, 96]

>  <energy_score>  (162) 
10.262952234822876

>  <distance_score>  (162) 
2.889789960455356

>  <path>  (162) 
/opt/xchem-fragalysis-2/maxwin/BulkDock/SCRATCH/511017/C10633-P96/C10633-P96.minimised.mol

>  <scratch_subdir>  (162) 
/opt/xchem-fragalysis-2/maxwin/BulkDock/SCRATCH/511017/C10633-P96

>  <fragmenstein_runtime>  (162) 
10.791923761367798

>  <fragmenstein_outcome>  (162) 
too moved

>  <fragmenstein_mode>  (162) 
expansion

>  <fragmenstein_error>  (162) 


$$$$
C10636-P35
     RDKit          3D

 43 44  0  0  0  0  0  0  0  0999 V2000
  -10.9747  -18.4451   35.5741 C   0  0  0  0  0  0  0  0  0  0  0  0
  -11.9973  -19.3358   35.1429 O   0  0  0  0  0  0  0  0  0  0  0  0
  -11.4394  -20.4585   34.4542 C   0  0  0  0  0  0  0  0  0  0  0  0
  -12.5832  -21.3915   33.9732 C   0  0  0  0  0  0  0  0  0  0  0  0
  -11.9412  -22.5890   33.3734 N   0  0  0  0  0  0  0  0  0  0  0  0
  -13.3931  -22.8650   32.9129 C   0  0  0  0  0  0  0  0  0  0  0  0
  -13.7221  -22.5485   31.4459 C   0  0  0  0  0  0  0  0  0  0  0  0
  -13.3686  -23.6054   30.5305 N   0  0  0  0  0  0  0  0  0  0  0  0
  -12.7467  -23.5641   29.2569 C   0  0  0  0  0  0  0  0  0  0  0  0
  -12.2828  -22.6510   28.6446 O   0  0  0  0  0  0  0  0  0  0  0  0
  -12.6687  -24.9296   28.7065 C   0  0  0  0  0  0  0  0  0  0  0  0
  -13.0355  -26.0497   29.4365 N   0  0  0  0  0  0  0  0  0  0  0  0
  -12.7254  -27.0748   28.6807 C   0  0  0  0  0  0  0  0  0  0  0  0
  -12.2110  -26.6781   27.4809 N   0  0  0  0  0  0  0  0  0  0  0  0
  -12.1942  -25.3091   27.4632 C   0  0  0  0  0  0  0  0  0  0  0  0
  -11.7219  -24.5103   26.3140 C   0  0  0  0  0  0  0  0  0  0  0  0
  -11.0645  -22.7112   32.2904 C   0  0  0  0  0  0  0  0  0  0  0  0
  -10.6756  -21.8913   31.5101 O   0  0  0  0  0  0  0  0  0  0  0  0
  -10.5055  -24.1003   32.2406 C   0  0  0  0  0  0  0  0  0  0  0  0
  -10.2036  -24.8828   31.0938 C   0  0  0  0  0  0  0  0  0  0  0  0
   -9.6640  -26.0540   31.5578 C   0  0  0  0  0  0  0  0  0  0  0  0
   -9.6044  -25.9138   32.9066 N   0  0  0  0  0  0  0  0  0  0  0  0
  -10.1026  -24.7515   33.3499 N   0  0  0  0  0  0  0  0  0  0  0  0
  -10.3602  -18.1124   34.7330 H   0  0  0  0  0  0  0  0  0  0  0  0
  -11.4494  -17.5722   36.0299 H   0  0  0  0  0  0  0  0  0  0  0  0
  -10.3451  -18.9314   36.3256 H   0  0  0  0  0  0  0  0  0  0  0  0
  -10.8509  -20.1095   33.5984 H   0  0  0  0  0  0  0  0  0  0  0  0
  -10.7736  -21.0050   35.1340 H   0  0  0  0  0  0  0  0  0  0  0  0
  -13.1167  -21.6602   34.8880 H   0  0  0  0  0  0  0  0  0  0  0  0
  -13.1920  -20.7733   33.3099 H   0  0  0  0  0  0  0  0  0  0  0  0
  -14.2375  -22.6003   33.5638 H   0  0  0  0  0  0  0  0  0  0  0  0
  -13.4479  -23.9500   32.9046 H   0  0  0  0  0  0  0  0  0  0  0  0
  -14.7926  -22.3780   31.3657 H   0  0  0  0  0  0  0  0  0  0  0  0
  -13.1945  -21.6668   31.1102 H   0  0  0  0  0  0  0  0  0  0  0  0
  -13.5688  -24.5793   30.7708 H   0  0  0  0  0  0  0  0  0  0  0  0
  -12.8526  -28.1164   28.9428 H   0  0  0  0  0  0  0  0  0  0  0  0
  -11.9081  -27.2919   26.7388 H   0  0  0  0  0  0  0  0  0  0  0  0
  -11.5448  -25.1412   25.4394 H   0  0  0  0  0  0  0  0  0  0  0  0
  -10.7896  -24.0023   26.5693 H   0  0  0  0  0  0  0  0  0  0  0  0
  -12.4642  -23.7579   26.0333 H   0  0  0  0  0  0  0  0  0  0  0  0
  -10.3447  -24.6158   30.0603 H   0  0  0  0  0  0  0  0  0  0  0  0
   -9.2860  -26.9333   31.0591 H   0  0  0  0  0  0  0  0  0  0  0  0
   -9.2036  -26.5562   33.5827 H   0  0  0  0  0  0  0  0  0  0  0  0
  1  2  1  0
  2  3  1  0
  3  4  1  0
  4  5  1  0
  5  6  1  0
  6  7  1  0
  7  8  1  0
  8  9  1  0
  9 10  2  0
  9 11  1  0
 11 12  1  0
 12 13  2  0
 13 14  1  0
 14 15  1  0
 15 16  1  0
  5 17  1  0
 17 18  2  0
 17 19  1  0
 19 20  1  0
 20 21  2  0
 21 22  1  0
 22 23  1  0
 15 11  2  0
 23 19  2  0
  1 24  1  0
  1 25  1  0
  1 26  1  0
  3 27  1  0
  3 28  1  0
  4 29  1  0
  4 30  1  0
  6 31  1  0
  6 32  1  0
  7 33  1  0
  7 34  1  0
  8 35  1  0
 13 36  1  0
 14 37  1  0
 16 38  1  0
 16 39  1  0
 16 40  1  0
 20 41  1  0
 21 42  1  0
 22 43  1  0
M  END
>  <Energy>  (163) 
164.80567336097877

>  <compound_id>  (163) 
10636

>  <target_id>  (163) 
1

>  <reference_id>  (163) 
35

>  <inspiration_ids>  (163) 
[35, 96]

>  <energy_score>  (163) 
41.7407887624924

>  <distance_score>  (163) 
2.6456645994055745

>  <path>  (163) 
/opt/xchem-fragalysis-2/maxwin/BulkDock/SCRATCH/511017/C10636-P35/C10636-P35.minimised.mol

>  <scratch_subdir>  (163) 
/opt/xchem-fragalysis-2/maxwin/BulkDock/SCRATCH/511017/C10636-P35

>  <fragmenstein_runtime>  (163) 
9.515517950057983

>  <fragmenstein_outcome>  (163) 
too moved

>  <fragmenstein_mode>  (163) 
expansion

>  <fragmenstein_error>  (163) 


$$$$
C10636-P96
     RDKit          3D

 43 44  0  0  0  0  0  0  0  0999 V2000
  -10.7299  -19.9598   31.7234 C   0  0  0  0  0  0  0  0  0  0  0  0
  -11.7791  -20.2734   32.6421 O   0  0  0  0  0  0  0  0  0  0  0  0
  -11.2710  -21.0985   33.6793 C   0  0  0  0  0  0  0  0  0  0  0  0
  -12.0498  -22.3877   33.9364 C   0  0  0  0  0  0  0  0  0  0  0  0
  -12.0527  -23.5268   32.9593 N   0  0  0  0  0  0  0  0  0  0  0  0
  -13.2195  -22.7348   32.3772 C   0  0  0  0  0  0  0  0  0  0  0  0
  -13.0336  -22.1164   31.0096 C   0  0  0  0  0  0  0  0  0  0  0  0
  -12.9412  -23.0223   29.9168 N   0  0  0  0  0  0  0  0  0  0  0  0
  -12.0629  -23.0524   28.8090 C   0  0  0  0  0  0  0  0  0  0  0  0
  -11.2216  -22.2827   28.4601 O   0  0  0  0  0  0  0  0  0  0  0  0
  -12.3708  -24.2516   28.0190 C   0  0  0  0  0  0  0  0  0  0  0  0
  -13.3763  -25.1550   28.3418 N   0  0  0  0  0  0  0  0  0  0  0  0
  -13.3039  -26.0925   27.4276 C   0  0  0  0  0  0  0  0  0  0  0  0
  -12.2935  -25.8517   26.5438 N   0  0  0  0  0  0  0  0  0  0  0  0
  -11.7385  -24.6476   26.8673 C   0  0  0  0  0  0  0  0  0  0  0  0
  -10.6793  -23.9732   26.1126 C   0  0  0  0  0  0  0  0  0  0  0  0
  -11.1241  -23.8743   31.9266 C   0  0  0  0  0  0  0  0  0  0  0  0
  -10.1547  -23.2918   31.5210 O   0  0  0  0  0  0  0  0  0  0  0  0
  -11.4979  -25.2052   31.3415 C   0  0  0  0  0  0  0  0  0  0  0  0
  -12.6784  -25.9820   31.5750 C   0  0  0  0  0  0  0  0  0  0  0  0
  -12.5574  -27.1006   30.7950 C   0  0  0  0  0  0  0  0  0  0  0  0
  -11.4062  -26.9224   30.1007 N   0  0  0  0  0  0  0  0  0  0  0  0
  -10.7115  -25.8379   30.4533 N   0  0  0  0  0  0  0  0  0  0  0  0
  -10.2031  -19.0699   32.0473 H   0  0  0  0  0  0  0  0  0  0  0  0
  -10.0496  -20.7971   31.6144 H   0  0  0  0  0  0  0  0  0  0  0  0
  -11.1443  -19.7776   30.7311 H   0  0  0  0  0  0  0  0  0  0  0  0
  -10.2354  -21.3867   33.4912 H   0  0  0  0  0  0  0  0  0  0  0  0
  -11.3220  -20.5047   34.5955 H   0  0  0  0  0  0  0  0  0  0  0  0
  -11.3872  -22.8549   34.6742 H   0  0  0  0  0  0  0  0  0  0  0  0
  -12.9555  -22.2559   34.5508 H   0  0  0  0  0  0  0  0  0  0  0  0
  -13.8330  -22.0466   32.9887 H   0  0  0  0  0  0  0  0  0  0  0  0
  -13.9647  -23.5333   32.2299 H   0  0  0  0  0  0  0  0  0  0  0  0
  -12.1328  -21.5473   30.9112 H   0  0  0  0  0  0  0  0  0  0  0  0
  -13.8616  -21.4368   30.8826 H   0  0  0  0  0  0  0  0  0  0  0  0
  -13.5841  -23.8112   29.8504 H   0  0  0  0  0  0  0  0  0  0  0  0
  -13.9338  -26.9693   27.3652 H   0  0  0  0  0  0  0  0  0  0  0  0
  -11.9807  -26.4861   25.8169 H   0  0  0  0  0  0  0  0  0  0  0  0
  -11.0967  -23.1720   25.4967 H   0  0  0  0  0  0  0  0  0  0  0  0
  -10.1801  -24.6851   25.4673 H   0  0  0  0  0  0  0  0  0  0  0  0
   -9.9308  -23.5426   26.7811 H   0  0  0  0  0  0  0  0  0  0  0  0
  -13.5027  -25.7549   32.2324 H   0  0  0  0  0  0  0  0  0  0  0  0
  -13.1956  -27.9578   30.6399 H   0  0  0  0  0  0  0  0  0  0  0  0
  -11.0163  -27.5178   29.3817 H   0  0  0  0  0  0  0  0  0  0  0  0
  1  2  1  0
  2  3  1  0
  3  4  1  0
  4  5  1  0
  5  6  1  0
  6  7  1  0
  7  8  1  0
  8  9  1  0
  9 10  2  0
  9 11  1  0
 11 12  1  0
 12 13  2  0
 13 14  1  0
 14 15  1  0
 15 16  1  0
  5 17  1  0
 17 18  2  0
 17 19  1  0
 19 20  1  0
 20 21  2  0
 21 22  1  0
 22 23  1  0
 15 11  2  0
 23 19  2  0
  1 24  1  0
  1 25  1  0
  1 26  1  0
  3 27  1  0
  3 28  1  0
  4 29  1  0
  4 30  1  0
  6 31  1  0
  6 32  1  0
  7 33  1  0
  7 34  1  0
  8 35  1  0
 13 36  1  0
 14 37  1  0
 16 38  1  0
 16 39  1  0
 16 40  1  0
 20 41  1  0
 21 42  1  0
 22 43  1  0
M  END
>  <Energy>  (164) 
188.8163683785956

>  <compound_id>  (164) 
10636

>  <target_id>  (164) 
1

>  <reference_id>  (164) 
96

>  <inspiration_ids>  (164) 
[35, 96]

>  <energy_score>  (164) 
65.75148378010942

>  <distance_score>  (164) 
3.3320996011756243

>  <path>  (164) 
/opt/xchem-fragalysis-2/maxwin/BulkDock/SCRATCH/511017/C10636-P96/C10636-P96.minimised.mol

>  <scratch_subdir>  (164) 
/opt/xchem-fragalysis-2/maxwin/BulkDock/SCRATCH/511017/C10636-P96

>  <fragmenstein_runtime>  (164) 
9.402087450027466

>  <fragmenstein_outcome>  (164) 
too moved

>  <fragmenstein_mode>  (164) 
expansion

>  <fragmenstein_error>  (164) 


$$$$
C10637-P35
     RDKit          3D

 49 50  0  0  0  0  0  0  0  0999 V2000
   -9.6519  -19.9576   36.0666 C   0  0  0  0  0  0  0  0  0  0  0  0
   -9.7236  -21.3777   36.0585 O   0  0  0  0  0  0  0  0  0  0  0  0
  -10.7608  -21.9069   35.2306 C   0  0  0  0  0  0  0  0  0  0  0  0
  -10.5308  -21.7090   33.7133 C   0  0  0  0  0  0  0  0  0  0  0  0
  -11.7456  -22.3097   33.0116 N   0  0  0  0  0  0  0  0  0  0  0  0
  -11.2480  -21.4540   31.8792 C   0  0  0  0  0  0  0  0  0  0  0  0
  -11.8534  -21.7666   30.4514 C   0  0  0  0  0  0  0  0  0  0  0  0
  -11.4904  -23.0291   29.8835 N   0  0  0  0  0  0  0  0  0  0  0  0
  -11.4948  -23.4836   28.5298 C   0  0  0  0  0  0  0  0  0  0  0  0
  -11.7265  -22.9050   27.5151 O   0  0  0  0  0  0  0  0  0  0  0  0
  -11.2255  -24.9224   28.5828 C   0  0  0  0  0  0  0  0  0  0  0  0
  -10.1668  -25.4580   29.2986 C   0  0  0  0  0  0  0  0  0  0  0  0
  -10.7246  -26.5357   29.9105 N   0  0  0  0  0  0  0  0  0  0  0  0
  -10.2650  -27.2102   31.1131 C   0  0  0  0  0  0  0  0  0  0  0  0
   -9.7040  -28.5490   30.6943 C   0  0  0  0  0  0  0  0  0  0  0  0
   -9.3056  -26.4539   32.0439 C   0  0  0  0  0  0  0  0  0  0  0  0
  -11.8592  -26.8508   29.2111 C   0  0  0  0  0  0  0  0  0  0  0  0
  -12.2056  -25.8743   28.4038 N   0  0  0  0  0  0  0  0  0  0  0  0
  -11.9899  -23.6075   32.5569 C   0  0  0  0  0  0  0  0  0  0  0  0
  -11.2738  -24.5656   32.5179 O   0  0  0  0  0  0  0  0  0  0  0  0
  -13.4260  -23.7339   32.1683 C   0  0  0  0  0  0  0  0  0  0  0  0
  -14.0261  -24.8124   31.4674 C   0  0  0  0  0  0  0  0  0  0  0  0
  -15.3728  -24.6066   31.5781 C   0  0  0  0  0  0  0  0  0  0  0  0
  -15.5084  -23.3955   32.1876 N   0  0  0  0  0  0  0  0  0  0  0  0
  -14.3464  -22.8055   32.4930 N   0  0  0  0  0  0  0  0  0  0  0  0
   -9.2084  -19.5892   35.1378 H   0  0  0  0  0  0  0  0  0  0  0  0
   -9.0004  -19.6565   36.8919 H   0  0  0  0  0  0  0  0  0  0  0  0
  -10.6388  -19.5119   36.2213 H   0  0  0  0  0  0  0  0  0  0  0  0
  -10.8192  -22.9761   35.4500 H   0  0  0  0  0  0  0  0  0  0  0  0
  -11.7229  -21.4738   35.5269 H   0  0  0  0  0  0  0  0  0  0  0  0
   -9.6199  -22.2743   33.4660 H   0  0  0  0  0  0  0  0  0  0  0  0
  -10.3687  -20.6241   33.6144 H   0  0  0  0  0  0  0  0  0  0  0  0
  -10.1803  -21.4846   31.6929 H   0  0  0  0  0  0  0  0  0  0  0  0
  -11.5641  -20.4584   32.1511 H   0  0  0  0  0  0  0  0  0  0  0  0
  -12.9383  -21.7500   30.4791 H   0  0  0  0  0  0  0  0  0  0  0  0
  -11.5176  -21.0445   29.7137 H   0  0  0  0  0  0  0  0  0  0  0  0
  -11.3283  -23.8196   30.4963 H   0  0  0  0  0  0  0  0  0  0  0  0
   -9.2465  -25.0180   29.6439 H   0  0  0  0  0  0  0  0  0  0  0  0
  -11.1779  -27.3904   31.6986 H   0  0  0  0  0  0  0  0  0  0  0  0
   -8.8683  -28.8880   31.3104 H   0  0  0  0  0  0  0  0  0  0  0  0
  -10.4997  -29.2986   30.7610 H   0  0  0  0  0  0  0  0  0  0  0  0
   -9.3596  -28.5301   29.6577 H   0  0  0  0  0  0  0  0  0  0  0  0
   -8.3811  -27.0040   32.2103 H   0  0  0  0  0  0  0  0  0  0  0  0
   -9.7519  -26.3785   33.0430 H   0  0  0  0  0  0  0  0  0  0  0  0
   -9.0504  -25.4432   31.7224 H   0  0  0  0  0  0  0  0  0  0  0  0
  -12.4220  -27.7591   29.3828 H   0  0  0  0  0  0  0  0  0  0  0  0
  -13.5370  -25.6820   31.0621 H   0  0  0  0  0  0  0  0  0  0  0  0
  -16.2310  -25.1751   31.2552 H   0  0  0  0  0  0  0  0  0  0  0  0
  -16.3668  -22.8827   32.3533 H   0  0  0  0  0  0  0  0  0  0  0  0
  1  2  1  0
  2  3  1  0
  3  4  1  0
  4  5  1  0
  5  6  1  0
  6  7  1  0
  7  8  1  0
  8  9  1  0
  9 10  2  0
  9 11  1  0
 11 12  2  0
 12 13  1  0
 13 14  1  0
 14 15  1  0
 14 16  1  0
 13 17  1  0
 17 18  2  0
  5 19  1  0
 19 20  2  0
 19 21  1  0
 21 22  1  0
 22 23  2  0
 23 24  1  0
 24 25  1  0
 18 11  1  0
 25 21  2  0
  1 26  1  0
  1 27  1  0
  1 28  1  0
  3 29  1  0
  3 30  1  0
  4 31  1  0
  4 32  1  0
  6 33  1  0
  6 34  1  0
  7 35  1  0
  7 36  1  0
  8 37  1  0
 12 38  1  0
 14 39  1  0
 15 40  1  0
 15 41  1  0
 15 42  1  0
 16 43  1  0
 16 44  1  0
 16 45  1  0
 17 46  1  0
 22 47  1  0
 23 48  1  0
 24 49  1  0
M  END
>  <Energy>  (165) 
204.21627598201147

>  <compound_id>  (165) 
10637

>  <target_id>  (165) 
1

>  <reference_id>  (165) 
35

>  <inspiration_ids>  (165) 
[35, 96]

>  <energy_score>  (165) 
79.90148684060557

>  <distance_score>  (165) 
3.67980300226993

>  <path>  (165) 
/opt/xchem-fragalysis-2/maxwin/BulkDock/SCRATCH/511017/C10637-P35/C10637-P35.minimised.mol

>  <scratch_subdir>  (165) 
/opt/xchem-fragalysis-2/maxwin/BulkDock/SCRATCH/511017/C10637-P35

>  <fragmenstein_runtime>  (165) 
13.882764101028442

>  <fragmenstein_outcome>  (165) 
too moved

>  <fragmenstein_mode>  (165) 
expansion

>  <fragmenstein_error>  (165) 


$$$$
C10637-P96
     RDKit          3D

 49 50  0  0  0  0  0  0  0  0999 V2000
  -12.4856  -18.7020   34.7049 C   0  0  0  0  0  0  0  0  0  0  0  0
  -13.0255  -19.3528   33.5801 O   0  0  0  0  0  0  0  0  0  0  0  0
  -14.2470  -20.0427   33.8315 C   0  0  0  0  0  0  0  0  0  0  0  0
  -14.5633  -20.7820   32.5137 C   0  0  0  0  0  0  0  0  0  0  0  0
  -14.3627  -22.2341   32.1654 N   0  0  0  0  0  0  0  0  0  0  0  0
  -12.9371  -21.9140   32.5754 C   0  0  0  0  0  0  0  0  0  0  0  0
  -12.0252  -21.2756   31.4769 C   0  0  0  0  0  0  0  0  0  0  0  0
  -11.2432  -22.2972   30.8465 N   0  0  0  0  0  0  0  0  0  0  0  0
  -11.2347  -22.7785   29.4914 C   0  0  0  0  0  0  0  0  0  0  0  0
  -11.8202  -22.3967   28.5261 O   0  0  0  0  0  0  0  0  0  0  0  0
  -10.3891  -24.0050   29.4599 C   0  0  0  0  0  0  0  0  0  0  0  0
   -9.1261  -24.0590   30.0421 C   0  0  0  0  0  0  0  0  0  0  0  0
   -9.3580  -24.9352   31.0844 N   0  0  0  0  0  0  0  0  0  0  0  0
   -9.0989  -24.6575   32.4953 C   0  0  0  0  0  0  0  0  0  0  0  0
   -8.5265  -25.8393   33.2416 C   0  0  0  0  0  0  0  0  0  0  0  0
   -8.2655  -23.4184   32.8003 C   0  0  0  0  0  0  0  0  0  0  0  0
  -10.3884  -25.7388   30.6646 C   0  0  0  0  0  0  0  0  0  0  0  0
  -10.9632  -25.2580   29.5857 N   0  0  0  0  0  0  0  0  0  0  0  0
  -14.8033  -23.4069   32.8146 C   0  0  0  0  0  0  0  0  0  0  0  0
  -15.3732  -23.5526   33.8602 O   0  0  0  0  0  0  0  0  0  0  0  0
  -14.4776  -24.6090   32.0021 C   0  0  0  0  0  0  0  0  0  0  0  0
  -14.9529  -25.9339   32.1757 C   0  0  0  0  0  0  0  0  0  0  0  0
  -14.3464  -26.6759   31.1884 C   0  0  0  0  0  0  0  0  0  0  0  0
  -13.5730  -25.8023   30.4868 N   0  0  0  0  0  0  0  0  0  0  0  0
  -13.5998  -24.5672   30.9895 N   0  0  0  0  0  0  0  0  0  0  0  0
  -11.6590  -18.0737   34.3718 H   0  0  0  0  0  0  0  0  0  0  0  0
  -12.1040  -19.4607   35.3858 H   0  0  0  0  0  0  0  0  0  0  0  0
  -13.2274  -18.0511   35.1712 H   0  0  0  0  0  0  0  0  0  0  0  0
  -14.1942  -20.7118   34.6939 H   0  0  0  0  0  0  0  0  0  0  0  0
  -15.0198  -19.2892   34.0239 H   0  0  0  0  0  0  0  0  0  0  0  0
  -15.6656  -20.7660   32.5203 H   0  0  0  0  0  0  0  0  0  0  0  0
  -14.3349  -20.1667   31.6389 H   0  0  0  0  0  0  0  0  0  0  0  0
  -12.7268  -21.6279   33.6126 H   0  0  0  0  0  0  0  0  0  0  0  0
  -12.4968  -22.9203   32.6937 H   0  0  0  0  0  0  0  0  0  0  0  0
  -12.5686  -20.7554   30.6975 H   0  0  0  0  0  0  0  0  0  0  0  0
  -11.3149  -20.5867   31.9436 H   0  0  0  0  0  0  0  0  0  0  0  0
  -10.5662  -22.8077   31.3792 H   0  0  0  0  0  0  0  0  0  0  0  0
   -8.3704  -23.3033   30.1394 H   0  0  0  0  0  0  0  0  0  0  0  0
  -10.0916  -24.4494   32.9114 H   0  0  0  0  0  0  0  0  0  0  0  0
   -8.5427  -25.6308   34.3138 H   0  0  0  0  0  0  0  0  0  0  0  0
   -9.1224  -26.7381   33.0829 H   0  0  0  0  0  0  0  0  0  0  0  0
   -7.4925  -26.0364   32.9491 H   0  0  0  0  0  0  0  0  0  0  0  0
   -8.7314  -22.5066   32.4205 H   0  0  0  0  0  0  0  0  0  0  0  0
   -7.2678  -23.4979   32.3720 H   0  0  0  0  0  0  0  0  0  0  0  0
   -8.1620  -23.2919   33.8832 H   0  0  0  0  0  0  0  0  0  0  0  0
  -10.7445  -26.5823   31.2377 H   0  0  0  0  0  0  0  0  0  0  0  0
  -15.6539  -26.2827   32.9222 H   0  0  0  0  0  0  0  0  0  0  0  0
  -14.4069  -27.7207   30.9195 H   0  0  0  0  0  0  0  0  0  0  0  0
  -12.9593  -25.9670   29.6882 H   0  0  0  0  0  0  0  0  0  0  0  0
  1  2  1  0
  2  3  1  0
  3  4  1  0
  4  5  1  0
  5  6  1  0
  6  7  1  0
  7  8  1  0
  8  9  1  0
  9 10  2  0
  9 11  1  0
 11 12  2  0
 12 13  1  0
 13 14  1  0
 14 15  1  0
 14 16  1  0
 13 17  1  0
 17 18  2  0
  5 19  1  0
 19 20  2  0
 19 21  1  0
 21 22  1  0
 22 23  2  0
 23 24  1  0
 24 25  1  0
 18 11  1  0
 25 21  2  0
  1 26  1  0
  1 27  1  0
  1 28  1  0
  3 29  1  0
  3 30  1  0
  4 31  1  0
  4 32  1  0
  6 33  1  0
  6 34  1  0
  7 35  1  0
  7 36  1  0
  8 37  1  0
 12 38  1  0
 14 39  1  0
 15 40  1  0
 15 41  1  0
 15 42  1  0
 16 43  1  0
 16 44  1  0
 16 45  1  0
 17 46  1  0
 22 47  1  0
 23 48  1  0
 24 49  1  0
M  END
>  <Energy>  (166) 
225.48425658585325

>  <compound_id>  (166) 
10637

>  <target_id>  (166) 
1

>  <reference_id>  (166) 
96

>  <inspiration_ids>  (166) 
[35, 96]

>  <energy_score>  (166) 
101.16946744443959

>  <distance_score>  (166) 
3.4996697048667373

>  <path>  (166) 
/opt/xchem-fragalysis-2/maxwin/BulkDock/SCRATCH/511017/C10637-P96/C10637-P96.minimised.mol

>  <scratch_subdir>  (166) 
/opt/xchem-fragalysis-2/maxwin/BulkDock/SCRATCH/511017/C10637-P96

>  <fragmenstein_runtime>  (166) 
12.155861616134644

>  <fragmenstein_outcome>  (166) 
too moved

>  <fragmenstein_mode>  (166) 
expansion

>  <fragmenstein_error>  (166) 


$$$$
C10638-P35
     RDKit          3D

 46 47  0  0  0  0  0  0  0  0999 V2000
  -11.9774  -26.7734   27.3324 C   0  0  0  0  0  0  0  0  0  0  0  0
  -12.7488  -25.5092   26.9990 C   0  0  0  0  0  0  0  0  0  0  0  0
  -12.4069  -24.4176   27.8801 N   0  0  0  0  0  0  0  0  0  0  0  0
  -11.4128  -23.5159   27.6563 C   0  0  0  0  0  0  0  0  0  0  0  0
  -11.3021  -22.6577   28.6414 N   0  0  0  0  0  0  0  0  0  0  0  0
  -12.2862  -23.0228   29.5502 C   0  0  0  0  0  0  0  0  0  0  0  0
  -12.4396  -22.3679   30.8619 C   0  0  0  0  0  0  0  0  0  0  0  0
  -13.4080  -22.5578   31.5344 O   0  0  0  0  0  0  0  0  0  0  0  0
  -11.2558  -21.6226   31.1247 N   0  0  0  0  0  0  0  0  0  0  0  0
  -10.8098  -20.9432   32.3160 C   0  0  0  0  0  0  0  0  0  0  0  0
  -10.0164  -21.7496   33.3597 C   0  0  0  0  0  0  0  0  0  0  0  0
  -10.4417  -23.1667   33.1898 N   0  0  0  0  0  0  0  0  0  0  0  0
  -10.0562  -23.2283   34.6401 C   0  0  0  0  0  0  0  0  0  0  0  0
  -10.8550  -22.5931   35.8225 C   0  0  0  0  0  0  0  0  0  0  0  0
  -12.2501  -22.4213   35.7213 O   0  0  0  0  0  0  0  0  0  0  0  0
  -12.6967  -21.5595   34.6970 C   0  0  0  0  0  0  0  0  0  0  0  0
   -9.8320  -24.2448   32.4711 C   0  0  0  0  0  0  0  0  0  0  0  0
   -8.7828  -24.3024   31.9019 O   0  0  0  0  0  0  0  0  0  0  0  0
  -10.6060  -25.4675   32.2720 C   0  0  0  0  0  0  0  0  0  0  0  0
  -10.0787  -26.7858   32.2678 C   0  0  0  0  0  0  0  0  0  0  0  0
  -10.9713  -27.5430   31.5440 C   0  0  0  0  0  0  0  0  0  0  0  0
  -11.9511  -26.6828   31.1677 N   0  0  0  0  0  0  0  0  0  0  0  0
  -11.7226  -25.4242   31.5268 N   0  0  0  0  0  0  0  0  0  0  0  0
  -13.0059  -24.0950   29.0577 C   0  0  0  0  0  0  0  0  0  0  0  0
  -12.2340  -27.1393   28.3303 H   0  0  0  0  0  0  0  0  0  0  0  0
  -12.2147  -27.5627   26.6165 H   0  0  0  0  0  0  0  0  0  0  0  0
  -10.8966  -26.6018   27.3076 H   0  0  0  0  0  0  0  0  0  0  0  0
  -12.5391  -25.1915   25.9717 H   0  0  0  0  0  0  0  0  0  0  0  0
  -13.8273  -25.6829   27.0806 H   0  0  0  0  0  0  0  0  0  0  0  0
  -10.8060  -23.5483   26.7665 H   0  0  0  0  0  0  0  0  0  0  0  0
  -10.6824  -21.6125   30.2911 H   0  0  0  0  0  0  0  0  0  0  0  0
  -11.6973  -20.5094   32.7618 H   0  0  0  0  0  0  0  0  0  0  0  0
  -10.1772  -20.1203   32.0641 H   0  0  0  0  0  0  0  0  0  0  0  0
   -8.9437  -21.6572   33.1708 H   0  0  0  0  0  0  0  0  0  0  0  0
  -10.1747  -21.1521   34.2608 H   0  0  0  0  0  0  0  0  0  0  0  0
   -9.0066  -22.9782   34.7903 H   0  0  0  0  0  0  0  0  0  0  0  0
   -9.9148  -24.2864   34.8155 H   0  0  0  0  0  0  0  0  0  0  0  0
  -10.7153  -23.2388   36.6872 H   0  0  0  0  0  0  0  0  0  0  0  0
  -10.4046  -21.6435   36.1387 H   0  0  0  0  0  0  0  0  0  0  0  0
  -13.7498  -21.3051   34.7758 H   0  0  0  0  0  0  0  0  0  0  0  0
  -12.1689  -20.6054   34.7512 H   0  0  0  0  0  0  0  0  0  0  0  0
  -12.6227  -22.0776   33.7507 H   0  0  0  0  0  0  0  0  0  0  0  0
   -9.0996  -27.0767   32.6272 H   0  0  0  0  0  0  0  0  0  0  0  0
  -10.9651  -28.5705   31.2126 H   0  0  0  0  0  0  0  0  0  0  0  0
  -12.7893  -26.8692   30.6308 H   0  0  0  0  0  0  0  0  0  0  0  0
  -13.8267  -24.6477   29.4922 H   0  0  0  0  0  0  0  0  0  0  0  0
  1  2  1  0
  2  3  1  0
  3  4  1  0
  4  5  2  0
  5  6  1  0
  6  7  1  0
  7  8  2  0
  7  9  1  0
  9 10  1  0
 10 11  1  0
 11 12  1  0
 12 13  1  0
 13 14  1  0
 14 15  1  0
 15 16  1  0
 12 17  1  0
 17 18  2  0
 17 19  1  0
 19 20  1  0
 20 21  2  0
 21 22  1  0
 22 23  1  0
  6 24  2  0
 24  3  1  0
 23 19  2  0
  1 25  1  0
  1 26  1  0
  1 27  1  0
  2 28  1  0
  2 29  1  0
  4 30  1  0
  9 31  1  0
 10 32  1  0
 10 33  1  0
 11 34  1  0
 11 35  1  0
 13 36  1  0
 13 37  1  0
 14 38  1  0
 14 39  1  0
 16 40  1  0
 16 41  1  0
 16 42  1  0
 20 43  1  0
 21 44  1  0
 22 45  1  0
 24 46  1  0
M  END
>  <Energy>  (167) 
204.73708680241973

>  <compound_id>  (167) 
10638

>  <target_id>  (167) 
1

>  <reference_id>  (167) 
35

>  <inspiration_ids>  (167) 
[35, 96]

>  <energy_score>  (167) 
84.69739217078603

>  <distance_score>  (167) 
2.7157575857211196

>  <path>  (167) 
/opt/xchem-fragalysis-2/maxwin/BulkDock/SCRATCH/511017/C10638-P35/C10638-P35.minimised.mol

>  <scratch_subdir>  (167) 
/opt/xchem-fragalysis-2/maxwin/BulkDock/SCRATCH/511017/C10638-P35

>  <fragmenstein_runtime>  (167) 
14.339288473129272

>  <fragmenstein_outcome>  (167) 
too moved

>  <fragmenstein_mode>  (167) 
expansion

>  <fragmenstein_error>  (167) 


$$$$
C10638-P96
     RDKit          3D

 46 47  0  0  0  0  0  0  0  0999 V2000
  -10.8720  -26.0746   27.9503 C   0  0  0  0  0  0  0  0  0  0  0  0
   -9.8232  -25.3156   28.7214 C   0  0  0  0  0  0  0  0  0  0  0  0
  -10.0626  -23.9009   28.6808 N   0  0  0  0  0  0  0  0  0  0  0  0
  -10.4389  -23.1753   27.6001 C   0  0  0  0  0  0  0  0  0  0  0  0
  -10.8236  -21.9801   27.9603 N   0  0  0  0  0  0  0  0  0  0  0  0
  -10.6775  -21.9140   29.3265 C   0  0  0  0  0  0  0  0  0  0  0  0
  -11.1976  -20.7777   30.1156 C   0  0  0  0  0  0  0  0  0  0  0  0
  -11.8236  -19.9508   29.5359 O   0  0  0  0  0  0  0  0  0  0  0  0
  -10.9236  -20.9294   31.4954 N   0  0  0  0  0  0  0  0  0  0  0  0
  -11.3911  -20.1958   32.6326 C   0  0  0  0  0  0  0  0  0  0  0  0
  -12.9292  -20.4539   32.8231 C   0  0  0  0  0  0  0  0  0  0  0  0
  -13.1648  -21.8168   32.2406 N   0  0  0  0  0  0  0  0  0  0  0  0
  -14.5678  -21.5907   32.8505 C   0  0  0  0  0  0  0  0  0  0  0  0
  -14.9459  -21.3143   34.3154 C   0  0  0  0  0  0  0  0  0  0  0  0
  -15.1596  -19.9158   34.5525 O   0  0  0  0  0  0  0  0  0  0  0  0
  -16.5040  -19.5132   34.3176 C   0  0  0  0  0  0  0  0  0  0  0  0
  -12.6635  -23.0720   32.6193 C   0  0  0  0  0  0  0  0  0  0  0  0
  -11.9941  -23.3878   33.5552 O   0  0  0  0  0  0  0  0  0  0  0  0
  -13.1133  -24.1646   31.7122 C   0  0  0  0  0  0  0  0  0  0  0  0
  -13.2448  -24.1609   30.3085 C   0  0  0  0  0  0  0  0  0  0  0  0
  -13.6569  -25.4279   29.9686 C   0  0  0  0  0  0  0  0  0  0  0  0
  -13.7353  -26.1204   31.1296 N   0  0  0  0  0  0  0  0  0  0  0  0
  -13.4393  -25.3819   32.1978 N   0  0  0  0  0  0  0  0  0  0  0  0
  -10.1494  -23.1105   29.7830 C   0  0  0  0  0  0  0  0  0  0  0  0
  -10.6524  -26.0033   26.8833 H   0  0  0  0  0  0  0  0  0  0  0  0
  -11.8714  -25.6632   28.0804 H   0  0  0  0  0  0  0  0  0  0  0  0
  -10.8923  -27.1161   28.2730 H   0  0  0  0  0  0  0  0  0  0  0  0
   -9.8451  -25.6283   29.7711 H   0  0  0  0  0  0  0  0  0  0  0  0
   -8.8204  -25.4929   28.3306 H   0  0  0  0  0  0  0  0  0  0  0  0
  -10.4546  -23.5518   26.5859 H   0  0  0  0  0  0  0  0  0  0  0  0
  -10.2893  -21.7022   31.6208 H   0  0  0  0  0  0  0  0  0  0  0  0
  -10.8608  -20.6147   33.4910 H   0  0  0  0  0  0  0  0  0  0  0  0
  -11.1494  -19.1397   32.5495 H   0  0  0  0  0  0  0  0  0  0  0  0
  -13.5354  -19.6819   32.3645 H   0  0  0  0  0  0  0  0  0  0  0  0
  -12.9516  -20.3934   33.9151 H   0  0  0  0  0  0  0  0  0  0  0  0
  -15.0620  -22.5538   32.6497 H   0  0  0  0  0  0  0  0  0  0  0  0
  -15.1096  -20.8992   32.1853 H   0  0  0  0  0  0  0  0  0  0  0  0
  -14.1406  -21.6590   34.9545 H   0  0  0  0  0  0  0  0  0  0  0  0
  -15.8616  -21.8572   34.5744 H   0  0  0  0  0  0  0  0  0  0  0  0
  -16.5700  -18.4337   34.4774 H   0  0  0  0  0  0  0  0  0  0  0  0
  -16.8047  -19.7323   33.2892 H   0  0  0  0  0  0  0  0  0  0  0  0
  -17.1774  -20.0103   35.0223 H   0  0  0  0  0  0  0  0  0  0  0  0
  -13.0631  -23.3384   29.6330 H   0  0  0  0  0  0  0  0  0  0  0  0
  -13.9049  -25.8783   29.0180 H   0  0  0  0  0  0  0  0  0  0  0  0
  -14.0056  -27.0891   31.2717 H   0  0  0  0  0  0  0  0  0  0  0  0
   -9.9266  -23.4918   30.7702 H   0  0  0  0  0  0  0  0  0  0  0  0
  1  2  1  0
  2  3  1  0
  3  4  1  0
  4  5  2  0
  5  6  1  0
  6  7  1  0
  7  8  2  0
  7  9  1  0
  9 10  1  0
 10 11  1  0
 11 12  1  0
 12 13  1  0
 13 14  1  0
 14 15  1  0
 15 16  1  0
 12 17  1  0
 17 18  2  0
 17 19  1  0
 19 20  1  0
 20 21  2  0
 21 22  1  0
 22 23  1  0
  6 24  2  0
 24  3  1  0
 23 19  2  0
  1 25  1  0
  1 26  1  0
  1 27  1  0
  2 28  1  0
  2 29  1  0
  4 30  1  0
  9 31  1  0
 10 32  1  0
 10 33  1  0
 11 34  1  0
 11 35  1  0
 13 36  1  0
 13 37  1  0
 14 38  1  0
 14 39  1  0
 16 40  1  0
 16 41  1  0
 16 42  1  0
 20 43  1  0
 21 44  1  0
 22 45  1  0
 24 46  1  0
M  END
>  <Energy>  (168) 
187.34550313697133

>  <compound_id>  (168) 
10638

>  <target_id>  (168) 
1

>  <reference_id>  (168) 
96

>  <inspiration_ids>  (168) 
[35, 96]

>  <energy_score>  (168) 
67.30580850533869

>  <distance_score>  (168) 
3.00851448190524

>  <path>  (168) 
/opt/xchem-fragalysis-2/maxwin/BulkDock/SCRATCH/511017/C10638-P96/C10638-P96.minimised.mol

>  <scratch_subdir>  (168) 
/opt/xchem-fragalysis-2/maxwin/BulkDock/SCRATCH/511017/C10638-P96

>  <fragmenstein_runtime>  (168) 
13.84728217124939

>  <fragmenstein_outcome>  (168) 
too moved

>  <fragmenstein_mode>  (168) 
expansion

>  <fragmenstein_error>  (168) 


$$$$
C10639-P35
     RDKit          3D

 43 44  0  0  0  0  0  0  0  0999 V2000
  -10.3429  -21.3294   35.2344 C   0  0  0  0  0  0  0  0  0  0  0  0
  -11.4031  -22.0269   34.5989 O   0  0  0  0  0  0  0  0  0  0  0  0
  -11.7543  -21.4173   33.3559 C   0  0  0  0  0  0  0  0  0  0  0  0
  -12.7542  -22.3118   32.5664 C   0  0  0  0  0  0  0  0  0  0  0  0
  -12.1651  -23.5618   31.9274 N   0  0  0  0  0  0  0  0  0  0  0  0
  -12.1160  -22.6383   30.6921 C   0  0  0  0  0  0  0  0  0  0  0  0
  -11.5526  -23.2410   29.3701 C   0  0  0  0  0  0  0  0  0  0  0  0
  -12.3617  -24.2191   28.7253 N   0  0  0  0  0  0  0  0  0  0  0  0
  -12.4120  -24.6401   27.3716 C   0  0  0  0  0  0  0  0  0  0  0  0
  -11.8453  -24.2288   26.4041 O   0  0  0  0  0  0  0  0  0  0  0  0
  -13.3096  -25.7932   27.2538 C   0  0  0  0  0  0  0  0  0  0  0  0
  -13.6981  -26.4189   26.0927 C   0  0  0  0  0  0  0  0  0  0  0  0
  -14.5176  -27.4358   26.4838 N   0  0  0  0  0  0  0  0  0  0  0  0
  -14.6150  -27.4002   27.8509 C   0  0  0  0  0  0  0  0  0  0  0  0
  -15.4464  -28.3604   28.6120 C   0  0  0  0  0  0  0  0  0  0  0  0
  -13.8880  -26.4231   28.3426 N   0  0  0  0  0  0  0  0  0  0  0  0
  -10.8991  -24.1985   32.1186 C   0  0  0  0  0  0  0  0  0  0  0  0
   -9.9433  -23.8585   32.7640 O   0  0  0  0  0  0  0  0  0  0  0  0
  -10.8433  -25.5373   31.4731 C   0  0  0  0  0  0  0  0  0  0  0  0
   -9.7584  -26.4508   31.5390 C   0  0  0  0  0  0  0  0  0  0  0  0
  -10.1216  -27.5126   30.7474 C   0  0  0  0  0  0  0  0  0  0  0  0
  -11.3620  -27.2159   30.2793 N   0  0  0  0  0  0  0  0  0  0  0  0
  -11.8376  -26.0533   30.7285 N   0  0  0  0  0  0  0  0  0  0  0  0
   -9.4675  -21.2836   34.5812 H   0  0  0  0  0  0  0  0  0  0  0  0
  -10.6618  -20.3175   35.5019 H   0  0  0  0  0  0  0  0  0  0  0  0
  -10.0741  -21.8658   36.1482 H   0  0  0  0  0  0  0  0  0  0  0  0
  -10.8542  -21.2016   32.7713 H   0  0  0  0  0  0  0  0  0  0  0  0
  -12.2460  -20.4706   33.5973 H   0  0  0  0  0  0  0  0  0  0  0  0
  -13.5231  -21.7310   32.0368 H   0  0  0  0  0  0  0  0  0  0  0  0
  -13.3810  -22.7672   33.3448 H   0  0  0  0  0  0  0  0  0  0  0  0
  -11.4714  -21.7639   30.8570 H   0  0  0  0  0  0  0  0  0  0  0  0
  -13.1352  -22.3684   30.3847 H   0  0  0  0  0  0  0  0  0  0  0  0
  -11.3908  -22.4319   28.6478 H   0  0  0  0  0  0  0  0  0  0  0  0
  -10.5996  -23.7451   29.5020 H   0  0  0  0  0  0  0  0  0  0  0  0
  -12.9218  -24.8648   29.2971 H   0  0  0  0  0  0  0  0  0  0  0  0
  -13.4708  -26.2191   25.0567 H   0  0  0  0  0  0  0  0  0  0  0  0
  -14.9641  -28.1061   25.8708 H   0  0  0  0  0  0  0  0  0  0  0  0
  -16.5061  -28.2202   28.3779 H   0  0  0  0  0  0  0  0  0  0  0  0
  -15.1678  -29.3906   28.3696 H   0  0  0  0  0  0  0  0  0  0  0  0
  -15.3121  -28.2162   29.6886 H   0  0  0  0  0  0  0  0  0  0  0  0
   -8.8333  -26.3221   32.0850 H   0  0  0  0  0  0  0  0  0  0  0  0
   -9.6069  -28.4217   30.4730 H   0  0  0  0  0  0  0  0  0  0  0  0
  -11.9479  -27.7453   29.6415 H   0  0  0  0  0  0  0  0  0  0  0  0
  1  2  1  0
  2  3  1  0
  3  4  1  0
  4  5  1  0
  5  6  1  0
  6  7  1  0
  7  8  1  0
  8  9  1  0
  9 10  2  0
  9 11  1  0
 11 12  2  0
 12 13  1  0
 13 14  1  0
 14 15  1  0
 14 16  2  0
  5 17  1  0
 17 18  2  0
 17 19  1  0
 19 20  1  0
 20 21  2  0
 21 22  1  0
 22 23  1  0
 16 11  1  0
 23 19  2  0
  1 24  1  0
  1 25  1  0
  1 26  1  0
  3 27  1  0
  3 28  1  0
  4 29  1  0
  4 30  1  0
  6 31  1  0
  6 32  1  0
  7 33  1  0
  7 34  1  0
  8 35  1  0
 12 36  1  0
 13 37  1  0
 15 38  1  0
 15 39  1  0
 15 40  1  0
 20 41  1  0
 21 42  1  0
 22 43  1  0
M  END
>  <Energy>  (169) 
160.93242710636116

>  <compound_id>  (169) 
10639

>  <target_id>  (169) 
1

>  <reference_id>  (169) 
35

>  <inspiration_ids>  (169) 
[35, 96]

>  <energy_score>  (169) 
46.643950790142355

>  <distance_score>  (169) 
4.245538348136145

>  <path>  (169) 
/opt/xchem-fragalysis-2/maxwin/BulkDock/SCRATCH/511017/C10639-P35/C10639-P35.minimised.mol

>  <scratch_subdir>  (169) 
/opt/xchem-fragalysis-2/maxwin/BulkDock/SCRATCH/511017/C10639-P35

>  <fragmenstein_runtime>  (169) 
10.840012311935425

>  <fragmenstein_outcome>  (169) 
too moved

>  <fragmenstein_mode>  (169) 
expansion

>  <fragmenstein_error>  (169) 


$$$$
C10639-P96
     RDKit          3D

 43 44  0  0  0  0  0  0  0  0999 V2000
  -11.1571  -20.5540   29.4295 C   0  0  0  0  0  0  0  0  0  0  0  0
  -10.6778  -20.2250   30.7245 O   0  0  0  0  0  0  0  0  0  0  0  0
  -11.6739  -20.3705   31.7092 C   0  0  0  0  0  0  0  0  0  0  0  0
  -11.2478  -21.0547   32.9682 C   0  0  0  0  0  0  0  0  0  0  0  0
  -10.5118  -22.3024   32.8831 N   0  0  0  0  0  0  0  0  0  0  0  0
  -11.8241  -22.8575   33.3882 C   0  0  0  0  0  0  0  0  0  0  0  0
  -13.1333  -22.9620   32.5275 C   0  0  0  0  0  0  0  0  0  0  0  0
  -12.9369  -23.6119   31.2660 N   0  0  0  0  0  0  0  0  0  0  0  0
  -12.9581  -24.9889   30.9119 C   0  0  0  0  0  0  0  0  0  0  0  0
  -13.2234  -25.9578   31.5592 O   0  0  0  0  0  0  0  0  0  0  0  0
  -12.5400  -25.0952   29.5056 C   0  0  0  0  0  0  0  0  0  0  0  0
  -12.1974  -26.2164   28.7821 C   0  0  0  0  0  0  0  0  0  0  0  0
  -11.7932  -25.7474   27.5604 N   0  0  0  0  0  0  0  0  0  0  0  0
  -11.8856  -24.3792   27.5810 C   0  0  0  0  0  0  0  0  0  0  0  0
  -11.4565  -23.5197   26.4583 C   0  0  0  0  0  0  0  0  0  0  0  0
  -12.3903  -23.9648   28.7195 N   0  0  0  0  0  0  0  0  0  0  0  0
  -10.0673  -23.0456   31.7556 C   0  0  0  0  0  0  0  0  0  0  0  0
  -10.2637  -22.8812   30.5838 O   0  0  0  0  0  0  0  0  0  0  0  0
   -9.1777  -24.0725   32.2443 C   0  0  0  0  0  0  0  0  0  0  0  0
   -9.3822  -25.4543   32.3373 C   0  0  0  0  0  0  0  0  0  0  0  0
   -8.3474  -25.8764   33.1296 C   0  0  0  0  0  0  0  0  0  0  0  0
   -7.4911  -24.8262   33.2438 N   0  0  0  0  0  0  0  0  0  0  0  0
   -8.0237  -23.6932   32.8102 N   0  0  0  0  0  0  0  0  0  0  0  0
  -10.3153  -20.6439   28.7427 H   0  0  0  0  0  0  0  0  0  0  0  0
  -11.7179  -21.4873   29.4074 H   0  0  0  0  0  0  0  0  0  0  0  0
  -11.8222  -19.7587   29.1159 H   0  0  0  0  0  0  0  0  0  0  0  0
  -12.6126  -20.7311   31.2937 H   0  0  0  0  0  0  0  0  0  0  0  0
  -11.8249  -19.3865   32.1215 H   0  0  0  0  0  0  0  0  0  0  0  0
  -11.9098  -20.8134   33.8229 H   0  0  0  0  0  0  0  0  0  0  0  0
  -10.3969  -20.4351   33.2487 H   0  0  0  0  0  0  0  0  0  0  0  0
  -11.5428  -23.8934   33.4841 H   0  0  0  0  0  0  0  0  0  0  0  0
  -12.0326  -22.5781   34.4323 H   0  0  0  0  0  0  0  0  0  0  0  0
  -13.8797  -23.5591   33.0541 H   0  0  0  0  0  0  0  0  0  0  0  0
  -13.6240  -22.0024   32.3672 H   0  0  0  0  0  0  0  0  0  0  0  0
  -12.5791  -23.0708   30.4736 H   0  0  0  0  0  0  0  0  0  0  0  0
  -12.1840  -27.2660   29.0374 H   0  0  0  0  0  0  0  0  0  0  0  0
  -11.4638  -26.3044   26.7802 H   0  0  0  0  0  0  0  0  0  0  0  0
  -11.0946  -22.5643   26.8460 H   0  0  0  0  0  0  0  0  0  0  0  0
  -10.6455  -23.9810   25.8883 H   0  0  0  0  0  0  0  0  0  0  0  0
  -12.2966  -23.3241   25.7867 H   0  0  0  0  0  0  0  0  0  0  0  0
  -10.2207  -26.0295   31.9774 H   0  0  0  0  0  0  0  0  0  0  0  0
   -8.0979  -26.8229   33.5636 H   0  0  0  0  0  0  0  0  0  0  0  0
   -6.5318  -24.7995   33.5978 H   0  0  0  0  0  0  0  0  0  0  0  0
  1  2  1  0
  2  3  1  0
  3  4  1  0
  4  5  1  0
  5  6  1  0
  6  7  1  0
  7  8  1  0
  8  9  1  0
  9 10  2  0
  9 11  1  0
 11 12  2  0
 12 13  1  0
 13 14  1  0
 14 15  1  0
 14 16  2  0
  5 17  1  0
 17 18  2  0
 17 19  1  0
 19 20  1  0
 20 21  2  0
 21 22  1  0
 22 23  1  0
 16 11  1  0
 23 19  2  0
  1 24  1  0
  1 25  1  0
  1 26  1  0
  3 27  1  0
  3 28  1  0
  4 29  1  0
  4 30  1  0
  6 31  1  0
  6 32  1  0
  7 33  1  0
  7 34  1  0
  8 35  1  0
 12 36  1  0
 13 37  1  0
 15 38  1  0
 15 39  1  0
 15 40  1  0
 20 41  1  0
 21 42  1  0
 22 43  1  0
M  END
>  <Energy>  (170) 
190.92798590923456

>  <compound_id>  (170) 
10639

>  <target_id>  (170) 
1

>  <reference_id>  (170) 
96

>  <inspiration_ids>  (170) 
[35, 96]

>  <energy_score>  (170) 
76.6395095930103

>  <distance_score>  (170) 
3.2990508585344305

>  <path>  (170) 
/opt/xchem-fragalysis-2/maxwin/BulkDock/SCRATCH/511017/C10639-P96/C10639-P96.minimised.mol

>  <scratch_subdir>  (170) 
/opt/xchem-fragalysis-2/maxwin/BulkDock/SCRATCH/511017/C10639-P96

>  <fragmenstein_runtime>  (170) 
10.285098791122437

>  <fragmenstein_outcome>  (170) 
too moved

>  <fragmenstein_mode>  (170) 
expansion

>  <fragmenstein_error>  (170) 


$$$$
C10641-P35
     RDKit          3D

 45 46  0  0  0  0  0  0  0  0999 V2000
  -10.1646  -21.8069   33.5515 C   0  0  0  0  0  0  0  0  0  0  0  0
  -11.3438  -22.6557   33.0933 C   0  0  0  0  0  0  0  0  0  0  0  0
  -12.6589  -21.8874   33.3319 C   0  0  0  0  0  0  0  0  0  0  0  0
  -13.9727  -22.5792   32.8684 C   0  0  0  0  0  0  0  0  0  0  0  0
  -13.8039  -23.5772   31.8565 N   0  0  0  0  0  0  0  0  0  0  0  0
  -14.6419  -24.8352   31.5381 C   0  0  0  0  0  0  0  0  0  0  0  0
  -15.6440  -25.2136   32.0010 O   0  0  0  0  0  0  0  0  0  0  0  0
  -13.8968  -25.5582   30.4184 C   0  0  0  0  0  0  0  0  0  0  0  0
  -13.0884  -26.7467   30.9048 C   0  0  0  0  0  0  0  0  0  0  0  0
  -11.5994  -26.6409   31.0374 C   0  0  0  0  0  0  0  0  0  0  0  0
  -10.8721  -26.0101   31.9434 N   0  0  0  0  0  0  0  0  0  0  0  0
   -9.6510  -26.6393   31.9439 C   0  0  0  0  0  0  0  0  0  0  0  0
   -9.6084  -27.5804   30.9489 C   0  0  0  0  0  0  0  0  0  0  0  0
  -10.7692  -27.4121   30.2660 N   0  0  0  0  0  0  0  0  0  0  0  0
  -11.0856  -27.9723   28.9850 C   0  0  0  0  0  0  0  0  0  0  0  0
  -11.2138  -23.0673   31.7062 N   0  0  0  0  0  0  0  0  0  0  0  0
  -11.3979  -22.2648   30.4019 C   0  0  0  0  0  0  0  0  0  0  0  0
  -11.6063  -21.1333   30.2372 O   0  0  0  0  0  0  0  0  0  0  0  0
  -11.3858  -23.1385   29.2077 C   0  0  0  0  0  0  0  0  0  0  0  0
  -10.6602  -24.3233   28.9330 C   0  0  0  0  0  0  0  0  0  0  0  0
  -11.0451  -24.6945   27.6717 C   0  0  0  0  0  0  0  0  0  0  0  0
  -11.8648  -23.7086   27.2257 N   0  0  0  0  0  0  0  0  0  0  0  0
  -12.1526  -22.8145   28.1593 N   0  0  0  0  0  0  0  0  0  0  0  0
  -10.2909  -21.4900   34.5922 H   0  0  0  0  0  0  0  0  0  0  0  0
   -9.2368  -22.3821   33.4978 H   0  0  0  0  0  0  0  0  0  0  0  0
  -10.0491  -20.9110   32.9335 H   0  0  0  0  0  0  0  0  0  0  0  0
  -11.3306  -23.5777   33.6744 H   0  0  0  0  0  0  0  0  0  0  0  0
  -12.7592  -21.6193   34.3904 H   0  0  0  0  0  0  0  0  0  0  0  0
  -12.5812  -20.9421   32.7969 H   0  0  0  0  0  0  0  0  0  0  0  0
  -14.6737  -21.8296   32.4867 H   0  0  0  0  0  0  0  0  0  0  0  0
  -14.4740  -23.0895   33.6773 H   0  0  0  0  0  0  0  0  0  0  0  0
  -12.9535  -23.5989   31.3272 H   0  0  0  0  0  0  0  0  0  0  0  0
  -14.6883  -25.9199   29.7465 H   0  0  0  0  0  0  0  0  0  0  0  0
  -13.3120  -24.8757   29.8081 H   0  0  0  0  0  0  0  0  0  0  0  0
  -13.5219  -27.1810   31.8062 H   0  0  0  0  0  0  0  0  0  0  0  0
  -13.2935  -27.5422   30.1744 H   0  0  0  0  0  0  0  0  0  0  0  0
   -8.8866  -26.4067   32.6756 H   0  0  0  0  0  0  0  0  0  0  0  0
   -8.8653  -28.3134   30.6798 H   0  0  0  0  0  0  0  0  0  0  0  0
  -11.7967  -27.3317   28.4598 H   0  0  0  0  0  0  0  0  0  0  0  0
  -11.5294  -28.9566   29.1406 H   0  0  0  0  0  0  0  0  0  0  0  0
  -10.1710  -28.0389   28.3921 H   0  0  0  0  0  0  0  0  0  0  0  0
  -10.9613  -24.0336   31.4806 H   0  0  0  0  0  0  0  0  0  0  0  0
   -9.9450  -24.8250   29.5678 H   0  0  0  0  0  0  0  0  0  0  0  0
  -10.7832  -25.5314   27.0470 H   0  0  0  0  0  0  0  0  0  0  0  0
  -12.2900  -23.5832   26.3106 H   0  0  0  0  0  0  0  0  0  0  0  0
  1  2  1  0
  2  3  1  0
  3  4  1  0
  4  5  1  0
  5  6  1  0
  6  7  2  0
  6  8  1  0
  8  9  1  0
  9 10  1  0
 10 11  2  0
 11 12  1  0
 12 13  2  0
 13 14  1  0
 14 15  1  0
  2 16  1  0
 16 17  1  0
 17 18  2  0
 17 19  1  0
 19 20  1  0
 20 21  2  0
 21 22  1  0
 22 23  1  0
 14 10  1  0
 23 19  2  0
  1 24  1  0
  1 25  1  0
  1 26  1  0
  2 27  1  0
  3 28  1  0
  3 29  1  0
  4 30  1  0
  4 31  1  0
  5 32  1  0
  8 33  1  0
  8 34  1  0
  9 35  1  0
  9 36  1  0
 12 37  1  0
 13 38  1  0
 15 39  1  0
 15 40  1  0
 15 41  1  0
 16 42  1  0
 20 43  1  0
 21 44  1  0
 22 45  1  0
M  END
>  <Energy>  (171) 
58.028383854407288

>  <compound_id>  (171) 
10641

>  <target_id>  (171) 
1

>  <reference_id>  (171) 
35

>  <inspiration_ids>  (171) 
[35, 96]

>  <energy_score>  (171) 
20.63118124037601

>  <distance_score>  (171) 
3.545677938844107

>  <path>  (171) 
/opt/xchem-fragalysis-2/maxwin/BulkDock/SCRATCH/511017/C10641-P35/C10641-P35.minimised.mol

>  <scratch_subdir>  (171) 
/opt/xchem-fragalysis-2/maxwin/BulkDock/SCRATCH/511017/C10641-P35

>  <fragmenstein_runtime>  (171) 
7.134944915771484

>  <fragmenstein_outcome>  (171) 
too moved

>  <fragmenstein_mode>  (171) 
expansion

>  <fragmenstein_error>  (171) 


$$$$
C10641-P96
     RDKit          3D

 45 46  0  0  0  0  0  0  0  0999 V2000
   -8.9866  -22.8515   33.5460 C   0  0  0  0  0  0  0  0  0  0  0  0
  -10.3583  -22.6132   32.9413 C   0  0  0  0  0  0  0  0  0  0  0  0
  -11.1724  -21.3623   33.3565 C   0  0  0  0  0  0  0  0  0  0  0  0
  -12.6677  -21.4005   32.9303 C   0  0  0  0  0  0  0  0  0  0  0  0
  -13.0516  -22.7424   32.5841 N   0  0  0  0  0  0  0  0  0  0  0  0
  -13.2850  -23.3926   31.2074 C   0  0  0  0  0  0  0  0  0  0  0  0
  -13.2788  -22.9252   30.1416 O   0  0  0  0  0  0  0  0  0  0  0  0
  -13.4401  -24.8811   31.4151 C   0  0  0  0  0  0  0  0  0  0  0  0
  -12.0268  -25.4199   31.1803 C   0  0  0  0  0  0  0  0  0  0  0  0
  -11.9389  -26.8848   31.2564 C   0  0  0  0  0  0  0  0  0  0  0  0
  -11.7502  -27.5821   32.3509 N   0  0  0  0  0  0  0  0  0  0  0  0
  -11.8056  -28.8860   31.9728 C   0  0  0  0  0  0  0  0  0  0  0  0
  -11.9681  -28.9899   30.6110 C   0  0  0  0  0  0  0  0  0  0  0  0
  -12.0306  -27.7022   30.1664 N   0  0  0  0  0  0  0  0  0  0  0  0
  -12.2058  -27.2739   28.8053 C   0  0  0  0  0  0  0  0  0  0  0  0
  -10.1994  -22.8308   31.5291 N   0  0  0  0  0  0  0  0  0  0  0  0
  -10.6710  -21.9910   30.3278 C   0  0  0  0  0  0  0  0  0  0  0  0
  -11.1962  -20.9497   30.2922 O   0  0  0  0  0  0  0  0  0  0  0  0
  -10.4067  -22.8467   29.1543 C   0  0  0  0  0  0  0  0  0  0  0  0
  -10.9382  -22.7706   27.8606 C   0  0  0  0  0  0  0  0  0  0  0  0
  -10.5595  -23.9272   27.2345 C   0  0  0  0  0  0  0  0  0  0  0  0
   -9.7755  -24.5826   28.1209 N   0  0  0  0  0  0  0  0  0  0  0  0
   -9.6584  -23.9637   29.2899 N   0  0  0  0  0  0  0  0  0  0  0  0
   -8.5552  -23.7938   33.1824 H   0  0  0  0  0  0  0  0  0  0  0  0
   -9.0368  -22.9516   34.6337 H   0  0  0  0  0  0  0  0  0  0  0  0
   -8.2993  -22.0627   33.2383 H   0  0  0  0  0  0  0  0  0  0  0  0
  -10.9163  -23.4781   33.3049 H   0  0  0  0  0  0  0  0  0  0  0  0
  -10.7157  -20.4490   32.9651 H   0  0  0  0  0  0  0  0  0  0  0  0
  -11.1598  -21.2942   34.4492 H   0  0  0  0  0  0  0  0  0  0  0  0
  -12.8523  -20.7536   32.0715 H   0  0  0  0  0  0  0  0  0  0  0  0
  -13.3041  -21.0634   33.7543 H   0  0  0  0  0  0  0  0  0  0  0  0
  -13.0480  -23.4486   33.2900 H   0  0  0  0  0  0  0  0  0  0  0  0
  -14.1519  -25.2730   30.6810 H   0  0  0  0  0  0  0  0  0  0  0  0
  -13.8269  -25.1331   32.4052 H   0  0  0  0  0  0  0  0  0  0  0  0
  -11.6852  -25.0943   30.1995 H   0  0  0  0  0  0  0  0  0  0  0  0
  -11.3268  -25.0150   31.9023 H   0  0  0  0  0  0  0  0  0  0  0  0
  -11.7373  -29.6668   32.7167 H   0  0  0  0  0  0  0  0  0  0  0  0
  -12.0537  -29.8461   29.9566 H   0  0  0  0  0  0  0  0  0  0  0  0
  -12.5499  -28.1215   28.2071 H   0  0  0  0  0  0  0  0  0  0  0  0
  -11.2447  -26.9183   28.4353 H   0  0  0  0  0  0  0  0  0  0  0  0
  -12.9591  -26.4843   28.7599 H   0  0  0  0  0  0  0  0  0  0  0  0
   -9.8534  -23.7326   31.1991 H   0  0  0  0  0  0  0  0  0  0  0  0
  -11.5660  -21.9937   27.4672 H   0  0  0  0  0  0  0  0  0  0  0  0
  -10.7577  -24.3064   26.2429 H   0  0  0  0  0  0  0  0  0  0  0  0
   -9.2661  -25.4510   27.9911 H   0  0  0  0  0  0  0  0  0  0  0  0
  1  2  1  0
  2  3  1  0
  3  4  1  0
  4  5  1  0
  5  6  1  0
  6  7  2  0
  6  8  1  0
  8  9  1  0
  9 10  1  0
 10 11  2  0
 11 12  1  0
 12 13  2  0
 13 14  1  0
 14 15  1  0
  2 16  1  0
 16 17  1  0
 17 18  2  0
 17 19  1  0
 19 20  1  0
 20 21  2  0
 21 22  1  0
 22 23  1  0
 14 10  1  0
 23 19  2  0
  1 24  1  0
  1 25  1  0
  1 26  1  0
  2 27  1  0
  3 28  1  0
  3 29  1  0
  4 30  1  0
  4 31  1  0
  5 32  1  0
  8 33  1  0
  8 34  1  0
  9 35  1  0
  9 36  1  0
 12 37  1  0
 13 38  1  0
 15 39  1  0
 15 40  1  0
 15 41  1  0
 16 42  1  0
 20 43  1  0
 21 44  1  0
 22 45  1  0
M  END
>  <Energy>  (172) 
52.470873544954848

>  <compound_id>  (172) 
10641

>  <target_id>  (172) 
1

>  <reference_id>  (172) 
96

>  <inspiration_ids>  (172) 
[35, 96]

>  <energy_score>  (172) 
15.073670930926141

>  <distance_score>  (172) 
3.1190335602783175

>  <path>  (172) 
/opt/xchem-fragalysis-2/maxwin/BulkDock/SCRATCH/511017/C10641-P96/C10641-P96.minimised.mol

>  <scratch_subdir>  (172) 
/opt/xchem-fragalysis-2/maxwin/BulkDock/SCRATCH/511017/C10641-P96

>  <fragmenstein_runtime>  (172) 
5.496870994567871

>  <fragmenstein_outcome>  (172) 
too moved

>  <fragmenstein_mode>  (172) 
expansion

>  <fragmenstein_error>  (172) 


$$$$
C10642-P35
     RDKit          3D

 45 46  0  0  0  0  0  0  0  0999 V2000
  -10.5995  -18.8563   35.5216 C   0  0  0  0  0  0  0  0  0  0  0  0
   -9.8076  -19.9750   34.8647 C   0  0  0  0  0  0  0  0  0  0  0  0
  -10.4934  -20.6014   33.6455 C   0  0  0  0  0  0  0  0  0  0  0  0
  -11.8479  -21.2329   33.9674 C   0  0  0  0  0  0  0  0  0  0  0  0
  -12.3731  -22.3244   33.0069 C   0  0  0  0  0  0  0  0  0  0  0  0
  -12.5938  -21.9293   31.5360 C   0  0  0  0  0  0  0  0  0  0  0  0
  -12.2298  -22.9280   30.5455 N   0  0  0  0  0  0  0  0  0  0  0  0
  -13.0851  -23.9803   29.8316 C   0  0  0  0  0  0  0  0  0  0  0  0
  -14.2305  -24.1673   29.8635 O   0  0  0  0  0  0  0  0  0  0  0  0
  -12.2089  -24.8884   29.1000 C   0  0  0  0  0  0  0  0  0  0  0  0
  -11.7772  -26.0377   29.7144 N   0  0  0  0  0  0  0  0  0  0  0  0
  -11.0425  -26.6660   28.8387 C   0  0  0  0  0  0  0  0  0  0  0  0
  -10.9492  -25.9602   27.6879 N   0  0  0  0  0  0  0  0  0  0  0  0
  -11.6732  -24.8060   27.8260 C   0  0  0  0  0  0  0  0  0  0  0  0
  -11.8027  -23.8368   26.7254 C   0  0  0  0  0  0  0  0  0  0  0  0
  -11.5548  -23.4865   32.9620 N   0  0  0  0  0  0  0  0  0  0  0  0
  -10.2916  -23.8400   33.7379 C   0  0  0  0  0  0  0  0  0  0  0  0
   -9.7521  -23.2746   34.5976 O   0  0  0  0  0  0  0  0  0  0  0  0
   -9.7761  -25.0474   33.1132 C   0  0  0  0  0  0  0  0  0  0  0  0
   -9.7440  -25.2910   31.7241 C   0  0  0  0  0  0  0  0  0  0  0  0
   -9.2056  -26.5328   31.5912 C   0  0  0  0  0  0  0  0  0  0  0  0
   -8.7342  -26.8328   32.8230 N   0  0  0  0  0  0  0  0  0  0  0  0
   -9.2196  -26.0533   33.7873 N   0  0  0  0  0  0  0  0  0  0  0  0
  -10.7718  -18.0337   34.8241 H   0  0  0  0  0  0  0  0  0  0  0  0
  -11.5673  -19.2073   35.8891 H   0  0  0  0  0  0  0  0  0  0  0  0
  -10.0438  -18.4569   36.3763 H   0  0  0  0  0  0  0  0  0  0  0  0
   -8.8353  -19.5769   34.5512 H   0  0  0  0  0  0  0  0  0  0  0  0
   -9.6051  -20.7503   35.6121 H   0  0  0  0  0  0  0  0  0  0  0  0
  -10.6310  -19.8396   32.8908 H   0  0  0  0  0  0  0  0  0  0  0  0
   -9.8063  -21.3197   33.1949 H   0  0  0  0  0  0  0  0  0  0  0  0
  -12.6007  -20.4378   34.0241 H   0  0  0  0  0  0  0  0  0  0  0  0
  -11.8093  -21.6713   34.9738 H   0  0  0  0  0  0  0  0  0  0  0  0
  -13.3440  -22.6587   33.3893 H   0  0  0  0  0  0  0  0  0  0  0  0
  -13.6538  -21.7181   31.3949 H   0  0  0  0  0  0  0  0  0  0  0  0
  -11.9454  -21.0984   31.2931 H   0  0  0  0  0  0  0  0  0  0  0  0
  -11.2557  -23.1022   30.3568 H   0  0  0  0  0  0  0  0  0  0  0  0
  -10.5736  -27.6318   28.9750 H   0  0  0  0  0  0  0  0  0  0  0  0
  -10.4839  -26.2877   26.8590 H   0  0  0  0  0  0  0  0  0  0  0  0
  -12.8052  -23.8893   26.2914 H   0  0  0  0  0  0  0  0  0  0  0  0
  -11.0874  -24.0389   25.9238 H   0  0  0  0  0  0  0  0  0  0  0  0
  -11.6327  -22.8210   27.0932 H   0  0  0  0  0  0  0  0  0  0  0  0
  -11.7901  -24.2502   32.3311 H   0  0  0  0  0  0  0  0  0  0  0  0
  -10.0812  -24.6661   30.9235 H   0  0  0  0  0  0  0  0  0  0  0  0
   -9.0053  -27.1632   30.7444 H   0  0  0  0  0  0  0  0  0  0  0  0
   -8.0869  -27.5757   33.0837 H   0  0  0  0  0  0  0  0  0  0  0  0
  1  2  1  0
  2  3  1  0
  3  4  1  0
  4  5  1  0
  5  6  1  0
  6  7  1  0
  7  8  1  0
  8  9  2  0
  8 10  1  0
 10 11  1  0
 11 12  2  0
 12 13  1  0
 13 14  1  0
 14 15  1  0
  5 16  1  0
 16 17  1  0
 17 18  2  0
 17 19  1  0
 19 20  1  0
 20 21  2  0
 21 22  1  0
 22 23  1  0
 14 10  2  0
 23 19  2  0
  1 24  1  0
  1 25  1  0
  1 26  1  0
  2 27  1  0
  2 28  1  0
  3 29  1  0
  3 30  1  0
  4 31  1  0
  4 32  1  0
  5 33  1  0
  6 34  1  0
  6 35  1  0
  7 36  1  0
 12 37  1  0
 13 38  1  0
 15 39  1  0
 15 40  1  0
 15 41  1  0
 16 42  1  0
 20 43  1  0
 21 44  1  0
 22 45  1  0
M  END
>  <Energy>  (173) 
119.76597546802159

>  <compound_id>  (173) 
10642

>  <target_id>  (173) 
1

>  <reference_id>  (173) 
35

>  <inspiration_ids>  (173) 
[35, 96]

>  <energy_score>  (173) 
33.89566940443842

>  <distance_score>  (173) 
2.5401262737668127

>  <path>  (173) 
/opt/xchem-fragalysis-2/maxwin/BulkDock/SCRATCH/511017/C10642-P35/C10642-P35.minimised.mol

>  <scratch_subdir>  (173) 
/opt/xchem-fragalysis-2/maxwin/BulkDock/SCRATCH/511017/C10642-P35

>  <fragmenstein_runtime>  (173) 
10.407787322998047

>  <fragmenstein_outcome>  (173) 
too moved

>  <fragmenstein_mode>  (173) 
expansion

>  <fragmenstein_error>  (173) 


$$$$
C10642-P96
     RDKit          3D

 45 46  0  0  0  0  0  0  0  0999 V2000
  -13.2997  -17.3424   34.8370 C   0  0  0  0  0  0  0  0  0  0  0  0
  -14.4806  -18.1820   34.3692 C   0  0  0  0  0  0  0  0  0  0  0  0
  -14.3116  -19.6978   34.2874 C   0  0  0  0  0  0  0  0  0  0  0  0
  -12.9378  -20.2499   33.8606 C   0  0  0  0  0  0  0  0  0  0  0  0
  -12.9918  -21.7796   33.7888 C   0  0  0  0  0  0  0  0  0  0  0  0
  -13.9277  -22.3684   32.6789 C   0  0  0  0  0  0  0  0  0  0  0  0
  -13.2325  -22.5575   31.4221 N   0  0  0  0  0  0  0  0  0  0  0  0
  -13.0221  -23.8311   30.5732 C   0  0  0  0  0  0  0  0  0  0  0  0
  -13.4409  -24.9118   30.7137 O   0  0  0  0  0  0  0  0  0  0  0  0
  -12.1244  -23.4358   29.4676 C   0  0  0  0  0  0  0  0  0  0  0  0
  -11.6495  -22.1335   29.4538 N   0  0  0  0  0  0  0  0  0  0  0  0
  -10.8555  -22.0458   28.4249 C   0  0  0  0  0  0  0  0  0  0  0  0
  -10.7793  -23.2216   27.7507 N   0  0  0  0  0  0  0  0  0  0  0  0
  -11.6128  -24.1210   28.3713 C   0  0  0  0  0  0  0  0  0  0  0  0
  -11.7936  -25.4753   27.8150 C   0  0  0  0  0  0  0  0  0  0  0  0
  -11.6954  -22.3429   33.5670 N   0  0  0  0  0  0  0  0  0  0  0  0
  -10.5647  -21.8961   32.6468 C   0  0  0  0  0  0  0  0  0  0  0  0
  -10.4682  -20.9536   31.9737 O   0  0  0  0  0  0  0  0  0  0  0  0
   -9.5759  -22.9720   32.6643 C   0  0  0  0  0  0  0  0  0  0  0  0
   -9.2240  -23.6652   31.4850 C   0  0  0  0  0  0  0  0  0  0  0  0
   -8.6973  -24.8460   31.9155 C   0  0  0  0  0  0  0  0  0  0  0  0
   -8.5425  -24.7111   33.2549 N   0  0  0  0  0  0  0  0  0  0  0  0
   -9.2229  -23.6721   33.7614 N   0  0  0  0  0  0  0  0  0  0  0  0
  -13.4643  -16.2924   34.5728 H   0  0  0  0  0  0  0  0  0  0  0  0
  -13.1848  -17.3618   35.9189 H   0  0  0  0  0  0  0  0  0  0  0  0
  -12.3507  -17.6513   34.3940 H   0  0  0  0  0  0  0  0  0  0  0  0
  -15.3477  -17.9545   35.0020 H   0  0  0  0  0  0  0  0  0  0  0  0
  -14.7810  -17.8655   33.3727 H   0  0  0  0  0  0  0  0  0  0  0  0
  -14.6038  -20.1416   35.2400 H   0  0  0  0  0  0  0  0  0  0  0  0
  -15.0818  -20.0433   33.5894 H   0  0  0  0  0  0  0  0  0  0  0  0
  -12.1762  -19.9468   34.5884 H   0  0  0  0  0  0  0  0  0  0  0  0
  -12.6535  -19.8354   32.8920 H   0  0  0  0  0  0  0  0  0  0  0  0
  -13.3331  -22.1500   34.7530 H   0  0  0  0  0  0  0  0  0  0  0  0
  -14.2855  -23.3566   32.9837 H   0  0  0  0  0  0  0  0  0  0  0  0
  -14.8051  -21.7502   32.4925 H   0  0  0  0  0  0  0  0  0  0  0  0
  -12.7829  -21.7633   30.9625 H   0  0  0  0  0  0  0  0  0  0  0  0
  -10.3458  -21.1438   28.1241 H   0  0  0  0  0  0  0  0  0  0  0  0
  -10.2675  -23.3674   26.8918 H   0  0  0  0  0  0  0  0  0  0  0  0
  -12.7199  -25.9294   28.1798 H   0  0  0  0  0  0  0  0  0  0  0  0
  -10.9593  -26.1197   28.1089 H   0  0  0  0  0  0  0  0  0  0  0  0
  -11.8447  -25.4490   26.7217 H   0  0  0  0  0  0  0  0  0  0  0  0
  -11.4829  -23.2598   33.9420 H   0  0  0  0  0  0  0  0  0  0  0  0
   -9.4485  -23.3911   30.4685 H   0  0  0  0  0  0  0  0  0  0  0  0
   -8.3488  -25.7147   31.3895 H   0  0  0  0  0  0  0  0  0  0  0  0
   -8.0224  -25.3119   33.8834 H   0  0  0  0  0  0  0  0  0  0  0  0
  1  2  1  0
  2  3  1  0
  3  4  1  0
  4  5  1  0
  5  6  1  0
  6  7  1  0
  7  8  1  0
  8  9  2  0
  8 10  1  0
 10 11  1  0
 11 12  2  0
 12 13  1  0
 13 14  1  0
 14 15  1  0
  5 16  1  0
 16 17  1  0
 17 18  2  0
 17 19  1  0
 19 20  1  0
 20 21  2  0
 21 22  1  0
 22 23  1  0
 14 10  2  0
 23 19  2  0
  1 24  1  0
  1 25  1  0
  1 26  1  0
  2 27  1  0
  2 28  1  0
  3 29  1  0
  3 30  1  0
  4 31  1  0
  4 32  1  0
  5 33  1  0
  6 34  1  0
  6 35  1  0
  7 36  1  0
 12 37  1  0
 13 38  1  0
 15 39  1  0
 15 40  1  0
 15 41  1  0
 16 42  1  0
 20 43  1  0
 21 44  1  0
 22 45  1  0
M  END
>  <Energy>  (174) 
94.345204206619854

>  <compound_id>  (174) 
10642

>  <target_id>  (174) 
1

>  <reference_id>  (174) 
96

>  <inspiration_ids>  (174) 
[35, 96]

>  <energy_score>  (174) 
8.47489814303458

>  <distance_score>  (174) 
2.1138434906976786

>  <path>  (174) 
/opt/xchem-fragalysis-2/maxwin/BulkDock/SCRATCH/511017/C10642-P96/C10642-P96.minimised.mol

>  <scratch_subdir>  (174) 
/opt/xchem-fragalysis-2/maxwin/BulkDock/SCRATCH/511017/C10642-P96

>  <fragmenstein_runtime>  (174) 
11.81178879737854

>  <fragmenstein_outcome>  (174) 
too moved

>  <fragmenstein_mode>  (174) 
expansion

>  <fragmenstein_error>  (174) 


$$$$
C8130-P35
     RDKit          3D

 45 46  0  0  0  0  0  0  0  0999 V2000
   -9.4069  -27.1393   31.4089 C   0  0  0  0  0  0  0  0  0  0  0  0
  -10.3243  -26.7192   30.2932 C   0  0  0  0  0  0  0  0  0  0  0  0
   -9.8511  -25.4128   29.6092 C   0  0  0  0  0  0  0  0  0  0  0  0
  -10.5842  -24.3243   30.1528 N   0  0  0  0  0  0  0  0  0  0  0  0
  -11.6220  -23.3818   29.4948 C   0  0  0  0  0  0  0  0  0  0  0  0
  -12.0871  -23.4014   28.4281 O   0  0  0  0  0  0  0  0  0  0  0  0
  -12.0805  -22.2293   30.4692 C   0  0  0  0  0  0  0  0  0  0  0  0
  -11.3979  -21.7021   31.7562 C   0  0  0  0  0  0  0  0  0  0  0  0
  -11.0897  -22.7479   32.7055 C   0  0  0  0  0  0  0  0  0  0  0  0
  -11.5881  -24.0151   32.7293 C   0  0  0  0  0  0  0  0  0  0  0  0
  -10.5676  -24.7288   33.3598 C   0  0  0  0  0  0  0  0  0  0  0  0
   -9.6879  -23.9277   33.9465 N   0  0  0  0  0  0  0  0  0  0  0  0
  -10.0618  -22.7038   33.5863 N   0  0  0  0  0  0  0  0  0  0  0  0
  -10.4760  -27.8418   29.2737 C   0  0  0  0  0  0  0  0  0  0  0  0
  -11.4087  -27.2996   28.3649 N   0  0  0  0  0  0  0  0  0  0  0  0
  -11.3988  -27.2541   26.8613 C   0  0  0  0  0  0  0  0  0  0  0  0
  -10.6610  -27.7209   26.1000 O   0  0  0  0  0  0  0  0  0  0  0  0
  -12.4443  -26.4211   26.3758 C   0  0  0  0  0  0  0  0  0  0  0  0
  -13.7767  -26.6362   26.6317 C   0  0  0  0  0  0  0  0  0  0  0  0
  -14.5270  -25.5257   26.4105 N   0  0  0  0  0  0  0  0  0  0  0  0
  -13.6868  -24.6518   25.9228 C   0  0  0  0  0  0  0  0  0  0  0  0
  -12.4084  -25.0938   26.0206 N   0  0  0  0  0  0  0  0  0  0  0  0
  -11.2813  -24.2290   25.8512 C   0  0  0  0  0  0  0  0  0  0  0  0
   -8.7543  -27.9817   31.1590 H   0  0  0  0  0  0  0  0  0  0  0  0
  -10.0560  -27.4663   32.2209 H   0  0  0  0  0  0  0  0  0  0  0  0
   -8.8109  -26.3118   31.8018 H   0  0  0  0  0  0  0  0  0  0  0  0
  -11.3256  -26.5270   30.7037 H   0  0  0  0  0  0  0  0  0  0  0  0
   -8.7822  -25.2442   29.7908 H   0  0  0  0  0  0  0  0  0  0  0  0
   -9.9970  -25.4084   28.5365 H   0  0  0  0  0  0  0  0  0  0  0  0
  -10.3369  -23.9689   31.0694 H   0  0  0  0  0  0  0  0  0  0  0  0
  -12.1228  -21.3607   29.8005 H   0  0  0  0  0  0  0  0  0  0  0  0
  -13.1290  -22.4694   30.7128 H   0  0  0  0  0  0  0  0  0  0  0  0
  -10.5034  -21.1482   31.4749 H   0  0  0  0  0  0  0  0  0  0  0  0
  -12.0673  -20.9770   32.2392 H   0  0  0  0  0  0  0  0  0  0  0  0
  -12.4221  -24.3892   32.1518 H   0  0  0  0  0  0  0  0  0  0  0  0
  -10.4645  -25.7957   33.4752 H   0  0  0  0  0  0  0  0  0  0  0  0
   -9.4756  -21.9215   33.8750 H   0  0  0  0  0  0  0  0  0  0  0  0
  -10.8785  -28.7364   29.7582 H   0  0  0  0  0  0  0  0  0  0  0  0
   -9.5435  -28.0710   28.7544 H   0  0  0  0  0  0  0  0  0  0  0  0
  -12.2643  -26.8399   28.7155 H   0  0  0  0  0  0  0  0  0  0  0  0
  -14.2173  -27.5603   26.9994 H   0  0  0  0  0  0  0  0  0  0  0  0
  -13.9385  -23.6752   25.5345 H   0  0  0  0  0  0  0  0  0  0  0  0
  -10.5459  -24.4362   26.6256 H   0  0  0  0  0  0  0  0  0  0  0  0
  -10.8580  -24.3733   24.8595 H   0  0  0  0  0  0  0  0  0  0  0  0
  -11.6175  -23.1991   25.9649 H   0  0  0  0  0  0  0  0  0  0  0  0
  1  2  1  0
  2  3  1  0
  3  4  1  0
  4  5  1  0
  5  6  2  0
  5  7  1  0
  7  8  1  0
  8  9  1  0
  9 10  2  0
 10 11  1  0
 11 12  2  0
 12 13  1  0
  2 14  1  0
 14 15  1  0
 15 16  1  0
 16 17  2  0
 16 18  1  0
 18 19  2  0
 19 20  1  0
 20 21  2  0
 21 22  1  0
 22 23  1  0
 13  9  1  0
 22 18  1  0
  1 24  1  0
  1 25  1  0
  1 26  1  0
  2 27  1  0
  3 28  1  0
  3 29  1  0
  4 30  1  0
  7 31  1  0
  7 32  1  0
  8 33  1  0
  8 34  1  0
 10 35  1  0
 11 36  1  0
 13 37  1  0
 14 38  1  0
 14 39  1  0
 15 40  1  0
 19 41  1  0
 21 42  1  0
 23 43  1  0
 23 44  1  0
 23 45  1  0
M  END
>  <Energy>  (175) 
31.499869317124563

>  <compound_id>  (175) 
8130

>  <target_id>  (175) 
1

>  <reference_id>  (175) 
35

>  <inspiration_ids>  (175) 
[35, 96]

>  <energy_score>  (175) 
32.6206098166698

>  <distance_score>  (175) 
3.630829009812766

>  <path>  (175) 
/opt/xchem-fragalysis-2/maxwin/BulkDock/SCRATCH/511017/C8130-P35/C8130-P35.minimised.mol

>  <scratch_subdir>  (175) 
/opt/xchem-fragalysis-2/maxwin/BulkDock/SCRATCH/511017/C8130-P35

>  <fragmenstein_runtime>  (175) 
3.835808038711548

>  <fragmenstein_outcome>  (175) 
too moved

>  <fragmenstein_mode>  (175) 
expansion

>  <fragmenstein_error>  (175) 


$$$$
C8130-P96
     RDKit          3D

 45 46  0  0  0  0  0  0  0  0999 V2000
  -12.9683  -21.3896   31.2429 C   0  0  0  0  0  0  0  0  0  0  0  0
  -11.5250  -20.9962   30.9016 C   0  0  0  0  0  0  0  0  0  0  0  0
  -10.9099  -20.0449   31.9083 C   0  0  0  0  0  0  0  0  0  0  0  0
  -10.5046  -20.9463   32.9065 N   0  0  0  0  0  0  0  0  0  0  0  0
  -11.2844  -21.5547   34.0705 C   0  0  0  0  0  0  0  0  0  0  0  0
  -12.3665  -21.3512   34.4401 O   0  0  0  0  0  0  0  0  0  0  0  0
  -10.4116  -22.6361   34.6772 C   0  0  0  0  0  0  0  0  0  0  0  0
   -9.3419  -23.3561   33.8859 C   0  0  0  0  0  0  0  0  0  0  0  0
   -9.8917  -24.1087   32.7419 C   0  0  0  0  0  0  0  0  0  0  0  0
  -11.1338  -24.1413   32.1421 C   0  0  0  0  0  0  0  0  0  0  0  0
  -11.0921  -25.2185   31.2631 C   0  0  0  0  0  0  0  0  0  0  0  0
   -9.9143  -25.8279   31.3120 N   0  0  0  0  0  0  0  0  0  0  0  0
   -9.1715  -25.0902   32.1348 N   0  0  0  0  0  0  0  0  0  0  0  0
  -11.2808  -20.6261   29.4588 C   0  0  0  0  0  0  0  0  0  0  0  0
  -11.2296  -21.8793   28.7696 N   0  0  0  0  0  0  0  0  0  0  0  0
  -10.0418  -22.7543   28.3949 C   0  0  0  0  0  0  0  0  0  0  0  0
   -8.9058  -22.5683   28.5139 O   0  0  0  0  0  0  0  0  0  0  0  0
  -10.4998  -24.0196   27.9117 C   0  0  0  0  0  0  0  0  0  0  0  0
   -9.9907  -25.2348   28.3121 C   0  0  0  0  0  0  0  0  0  0  0  0
  -10.8637  -26.2404   28.0277 N   0  0  0  0  0  0  0  0  0  0  0  0
  -11.8022  -25.6722   27.3097 C   0  0  0  0  0  0  0  0  0  0  0  0
  -11.5313  -24.3611   27.0937 N   0  0  0  0  0  0  0  0  0  0  0  0
  -12.1500  -23.5516   26.0906 C   0  0  0  0  0  0  0  0  0  0  0  0
  -13.0682  -21.8440   32.2249 H   0  0  0  0  0  0  0  0  0  0  0  0
  -13.6508  -20.5423   31.2740 H   0  0  0  0  0  0  0  0  0  0  0  0
  -13.3297  -22.1415   30.5377 H   0  0  0  0  0  0  0  0  0  0  0  0
  -10.9651  -21.9333   31.0031 H   0  0  0  0  0  0  0  0  0  0  0  0
  -11.6267  -19.3885   32.3874 H   0  0  0  0  0  0  0  0  0  0  0  0
  -10.0447  -19.4995   31.5450 H   0  0  0  0  0  0  0  0  0  0  0  0
   -9.6174  -21.4098   32.8190 H   0  0  0  0  0  0  0  0  0  0  0  0
   -9.9718  -22.3294   35.6189 H   0  0  0  0  0  0  0  0  0  0  0  0
  -11.1838  -23.3528   34.9030 H   0  0  0  0  0  0  0  0  0  0  0  0
   -8.5236  -22.7112   33.5545 H   0  0  0  0  0  0  0  0  0  0  0  0
   -8.8663  -24.0785   34.5634 H   0  0  0  0  0  0  0  0  0  0  0  0
  -12.0043  -23.5667   32.3975 H   0  0  0  0  0  0  0  0  0  0  0  0
  -11.8714  -25.6226   30.6299 H   0  0  0  0  0  0  0  0  0  0  0  0
   -8.2054  -25.3674   32.2859 H   0  0  0  0  0  0  0  0  0  0  0  0
  -10.3067  -20.1584   29.3404 H   0  0  0  0  0  0  0  0  0  0  0  0
  -12.0369  -19.9648   29.0741 H   0  0  0  0  0  0  0  0  0  0  0  0
  -12.0798  -22.3136   28.4512 H   0  0  0  0  0  0  0  0  0  0  0  0
   -9.1027  -25.3969   28.9093 H   0  0  0  0  0  0  0  0  0  0  0  0
  -12.6466  -26.1873   26.8694 H   0  0  0  0  0  0  0  0  0  0  0  0
  -12.9639  -24.1002   25.6128 H   0  0  0  0  0  0  0  0  0  0  0  0
  -11.3933  -23.2267   25.3746 H   0  0  0  0  0  0  0  0  0  0  0  0
  -12.5686  -22.7081   26.5863 H   0  0  0  0  0  0  0  0  0  0  0  0
  1  2  1  0
  2  3  1  0
  3  4  1  0
  4  5  1  0
  5  6  2  0
  5  7  1  0
  7  8  1  0
  8  9  1  0
  9 10  2  0
 10 11  1  0
 11 12  2  0
 12 13  1  0
  2 14  1  0
 14 15  1  0
 15 16  1  0
 16 17  2  0
 16 18  1  0
 18 19  2  0
 19 20  1  0
 20 21  2  0
 21 22  1  0
 22 23  1  0
 13  9  1  0
 22 18  1  0
  1 24  1  0
  1 25  1  0
  1 26  1  0
  2 27  1  0
  3 28  1  0
  3 29  1  0
  4 30  1  0
  7 31  1  0
  7 32  1  0
  8 33  1  0
  8 34  1  0
 10 35  1  0
 11 36  1  0
 13 37  1  0
 14 38  1  0
 14 39  1  0
 15 40  1  0
 19 41  1  0
 21 42  1  0
 23 43  1  0
 23 44  1  0
 23 45  1  0
M  END
>  <Energy>  (176) 
26.572023081510583

>  <compound_id>  (176) 
8130

>  <target_id>  (176) 
1

>  <reference_id>  (176) 
96

>  <inspiration_ids>  (176) 
[35, 96]

>  <energy_score>  (176) 
27.692763581058614

>  <distance_score>  (176) 
1.8800280208079563

>  <path>  (176) 
/opt/xchem-fragalysis-2/maxwin/BulkDock/SCRATCH/511017/C8130-P96/C8130-P96.minimised.mol

>  <scratch_subdir>  (176) 
/opt/xchem-fragalysis-2/maxwin/BulkDock/SCRATCH/511017/C8130-P96

>  <fragmenstein_runtime>  (176) 
4.936397075653076

>  <fragmenstein_outcome>  (176) 
too moved

>  <fragmenstein_mode>  (176) 
expansion

>  <fragmenstein_error>  (176) 


$$$$
C8131-P35
     RDKit          3D

 42 43  0  0  0  0  0  0  0  0999 V2000
  -13.5506  -23.7754   30.1732 C   0  0  0  0  0  0  0  0  0  0  0  0
  -14.0847  -23.8296   31.6183 C   0  0  0  0  0  0  0  0  0  0  0  0
  -14.2367  -22.4502   32.2604 C   0  0  0  0  0  0  0  0  0  0  0  0
  -12.8798  -21.9882   32.4849 N   0  0  0  0  0  0  0  0  0  0  0  0
  -12.1708  -21.7107   33.6957 C   0  0  0  0  0  0  0  0  0  0  0  0
  -12.5372  -21.7099   34.8333 O   0  0  0  0  0  0  0  0  0  0  0  0
  -10.7054  -21.4883   33.3864 C   0  0  0  0  0  0  0  0  0  0  0  0
   -9.9335  -22.7547   33.7708 C   0  0  0  0  0  0  0  0  0  0  0  0
  -10.1540  -23.9842   32.9279 C   0  0  0  0  0  0  0  0  0  0  0  0
  -10.6088  -24.2016   31.6480 C   0  0  0  0  0  0  0  0  0  0  0  0
  -10.5011  -25.5829   31.4218 C   0  0  0  0  0  0  0  0  0  0  0  0
  -10.0685  -26.2301   32.4990 N   0  0  0  0  0  0  0  0  0  0  0  0
   -9.8102  -25.2410   33.3711 N   0  0  0  0  0  0  0  0  0  0  0  0
  -15.2840  -24.7701   31.7599 C   0  0  0  0  0  0  0  0  0  0  0  0
  -14.8615  -26.0204   31.1872 N   0  0  0  0  0  0  0  0  0  0  0  0
  -15.2699  -26.6884   30.0070 C   0  0  0  0  0  0  0  0  0  0  0  0
  -16.1295  -26.4276   29.2206 O   0  0  0  0  0  0  0  0  0  0  0  0
  -14.4045  -27.8131   29.7058 C   0  0  0  0  0  0  0  0  0  0  0  0
  -13.1910  -28.2604   30.2088 C   0  0  0  0  0  0  0  0  0  0  0  0
  -12.7141  -29.3315   29.4974 N   0  0  0  0  0  0  0  0  0  0  0  0
  -13.6208  -29.5330   28.5815 C   0  0  0  0  0  0  0  0  0  0  0  0
  -13.6631  -30.7643   27.4197 Cl  0  0  0  0  0  0  0  0  0  0  0  0
  -14.6401  -28.6460   28.6353 N   0  0  0  0  0  0  0  0  0  0  0  0
  -14.3424  -23.8827   29.4421 H   0  0  0  0  0  0  0  0  0  0  0  0
  -12.9957  -22.8607   29.9530 H   0  0  0  0  0  0  0  0  0  0  0  0
  -12.8783  -24.6179   29.9803 H   0  0  0  0  0  0  0  0  0  0  0  0
  -13.2759  -24.3085   32.1741 H   0  0  0  0  0  0  0  0  0  0  0  0
  -14.7527  -21.7415   31.6112 H   0  0  0  0  0  0  0  0  0  0  0  0
  -14.7511  -22.5070   33.2208 H   0  0  0  0  0  0  0  0  0  0  0  0
  -12.2709  -21.8123   31.6993 H   0  0  0  0  0  0  0  0  0  0  0  0
  -10.5314  -21.2144   32.3419 H   0  0  0  0  0  0  0  0  0  0  0  0
  -10.3636  -20.6402   33.9918 H   0  0  0  0  0  0  0  0  0  0  0  0
  -10.1302  -23.0035   34.8214 H   0  0  0  0  0  0  0  0  0  0  0  0
   -8.8747  -22.5000   33.6998 H   0  0  0  0  0  0  0  0  0  0  0  0
  -10.9580  -23.4656   30.9474 H   0  0  0  0  0  0  0  0  0  0  0  0
  -10.7312  -26.1431   30.5254 H   0  0  0  0  0  0  0  0  0  0  0  0
   -9.3877  -25.4939   34.2575 H   0  0  0  0  0  0  0  0  0  0  0  0
  -16.1782  -24.4285   31.2434 H   0  0  0  0  0  0  0  0  0  0  0  0
  -15.5418  -24.9418   32.8022 H   0  0  0  0  0  0  0  0  0  0  0  0
  -14.0432  -26.4822   31.5605 H   0  0  0  0  0  0  0  0  0  0  0  0
  -12.6107  -27.8660   31.0342 H   0  0  0  0  0  0  0  0  0  0  0  0
  -15.4374  -28.5973   28.0157 H   0  0  0  0  0  0  0  0  0  0  0  0
  1  2  1  0
  2  3  1  0
  3  4  1  0
  4  5  1  0
  5  6  2  0
  5  7  1  0
  7  8  1  0
  8  9  1  0
  9 10  2  0
 10 11  1  0
 11 12  2  0
 12 13  1  0
  2 14  1  0
 14 15  1  0
 15 16  1  0
 16 17  2  0
 16 18  1  0
 18 19  2  0
 19 20  1  0
 20 21  2  0
 21 22  1  0
 21 23  1  0
 13  9  1  0
 23 18  1  0
  1 24  1  0
  1 25  1  0
  1 26  1  0
  2 27  1  0
  3 28  1  0
  3 29  1  0
  4 30  1  0
  7 31  1  0
  7 32  1  0
  8 33  1  0
  8 34  1  0
 10 35  1  0
 11 36  1  0
 13 37  1  0
 14 38  1  0
 14 39  1  0
 15 40  1  0
 19 41  1  0
 23 42  1  0
M  END
>  <Energy>  (177) 
-36.179425255791372

>  <compound_id>  (177) 
8131

>  <target_id>  (177) 
1

>  <reference_id>  (177) 
35

>  <inspiration_ids>  (177) 
[35, 96]

>  <energy_score>  (177) 
-20.501516217980935

>  <distance_score>  (177) 
3.9333083698078477

>  <path>  (177) 
/opt/xchem-fragalysis-2/maxwin/BulkDock/SCRATCH/511017/C8131-P35/C8131-P35.minimised.mol

>  <scratch_subdir>  (177) 
/opt/xchem-fragalysis-2/maxwin/BulkDock/SCRATCH/511017/C8131-P35

>  <fragmenstein_runtime>  (177) 
12.195775747299194

>  <fragmenstein_outcome>  (177) 
too moved

>  <fragmenstein_mode>  (177) 
expansion

>  <fragmenstein_error>  (177) 


$$$$
C8131-P96
     RDKit          3D

 42 43  0  0  0  0  0  0  0  0999 V2000
  -10.5359  -20.0823   30.9746 C   0  0  0  0  0  0  0  0  0  0  0  0
  -11.0117  -21.2839   30.1918 C   0  0  0  0  0  0  0  0  0  0  0  0
  -12.4799  -21.4803   30.4566 C   0  0  0  0  0  0  0  0  0  0  0  0
  -12.5469  -21.9296   31.7663 N   0  0  0  0  0  0  0  0  0  0  0  0
  -12.7048  -21.1515   33.0808 C   0  0  0  0  0  0  0  0  0  0  0  0
  -12.8811  -20.0199   33.2691 O   0  0  0  0  0  0  0  0  0  0  0  0
  -12.4704  -22.2275   34.0697 C   0  0  0  0  0  0  0  0  0  0  0  0
  -10.9479  -22.4985   34.0633 C   0  0  0  0  0  0  0  0  0  0  0  0
  -10.3322  -23.4278   33.0427 C   0  0  0  0  0  0  0  0  0  0  0  0
  -10.7868  -24.3783   32.1443 C   0  0  0  0  0  0  0  0  0  0  0  0
   -9.6485  -24.8776   31.5106 C   0  0  0  0  0  0  0  0  0  0  0  0
   -8.5498  -24.2606   31.9182 N   0  0  0  0  0  0  0  0  0  0  0  0
   -8.9663  -23.4471   32.8917 N   0  0  0  0  0  0  0  0  0  0  0  0
  -10.6882  -21.3332   28.7067 C   0  0  0  0  0  0  0  0  0  0  0  0
  -10.7698  -22.7221   28.3808 N   0  0  0  0  0  0  0  0  0  0  0  0
  -11.1642  -23.4134   27.0808 C   0  0  0  0  0  0  0  0  0  0  0  0
  -11.4133  -22.9707   26.0396 O   0  0  0  0  0  0  0  0  0  0  0  0
  -11.2645  -24.7836   27.4413 C   0  0  0  0  0  0  0  0  0  0  0  0
  -10.3563  -25.6029   28.0742 C   0  0  0  0  0  0  0  0  0  0  0  0
  -11.0128  -26.5609   28.8000 N   0  0  0  0  0  0  0  0  0  0  0  0
  -12.2750  -26.3663   28.5221 C   0  0  0  0  0  0  0  0  0  0  0  0
  -13.6120  -27.1860   29.1614 Cl  0  0  0  0  0  0  0  0  0  0  0  0
  -12.4812  -25.3829   27.6144 N   0  0  0  0  0  0  0  0  0  0  0  0
  -11.3109  -19.5480   31.4973 H   0  0  0  0  0  0  0  0  0  0  0  0
   -9.8874  -20.3887   31.7966 H   0  0  0  0  0  0  0  0  0  0  0  0
  -10.0366  -19.4045   30.3094 H   0  0  0  0  0  0  0  0  0  0  0  0
  -10.4687  -22.1223   30.6402 H   0  0  0  0  0  0  0  0  0  0  0  0
  -12.9346  -20.5152   30.5186 H   0  0  0  0  0  0  0  0  0  0  0  0
  -12.9596  -22.2153   29.8133 H   0  0  0  0  0  0  0  0  0  0  0  0
  -12.3268  -22.8807   31.9667 H   0  0  0  0  0  0  0  0  0  0  0  0
  -12.8289  -21.8630   35.0184 H   0  0  0  0  0  0  0  0  0  0  0  0
  -13.0929  -23.0451   33.7391 H   0  0  0  0  0  0  0  0  0  0  0  0
  -10.6041  -22.8749   35.0226 H   0  0  0  0  0  0  0  0  0  0  0  0
  -10.4713  -21.5307   33.9031 H   0  0  0  0  0  0  0  0  0  0  0  0
  -11.7949  -24.7273   31.9678 H   0  0  0  0  0  0  0  0  0  0  0  0
   -9.5657  -25.6589   30.7710 H   0  0  0  0  0  0  0  0  0  0  0  0
   -8.2650  -22.9110   33.3942 H   0  0  0  0  0  0  0  0  0  0  0  0
   -9.6753  -21.0129   28.5051 H   0  0  0  0  0  0  0  0  0  0  0  0
  -11.3714  -20.7657   28.0937 H   0  0  0  0  0  0  0  0  0  0  0  0
  -10.5427  -23.4203   29.0796 H   0  0  0  0  0  0  0  0  0  0  0  0
   -9.2877  -25.4541   28.1766 H   0  0  0  0  0  0  0  0  0  0  0  0
  -13.3787  -25.0182   27.3252 H   0  0  0  0  0  0  0  0  0  0  0  0
  1  2  1  0
  2  3  1  0
  3  4  1  0
  4  5  1  0
  5  6  2  0
  5  7  1  0
  7  8  1  0
  8  9  1  0
  9 10  2  0
 10 11  1  0
 11 12  2  0
 12 13  1  0
  2 14  1  0
 14 15  1  0
 15 16  1  0
 16 17  2  0
 16 18  1  0
 18 19  2  0
 19 20  1  0
 20 21  2  0
 21 22  1  0
 21 23  1  0
 13  9  1  0
 23 18  1  0
  1 24  1  0
  1 25  1  0
  1 26  1  0
  2 27  1  0
  3 28  1  0
  3 29  1  0
  4 30  1  0
  7 31  1  0
  7 32  1  0
  8 33  1  0
  8 34  1  0
 10 35  1  0
 11 36  1  0
 13 37  1  0
 14 38  1  0
 14 39  1  0
 15 40  1  0
 19 41  1  0
 23 42  1  0
M  END
>  <Energy>  (178) 
18.322549449715794

>  <compound_id>  (178) 
8131

>  <target_id>  (178) 
1

>  <reference_id>  (178) 
96

>  <inspiration_ids>  (178) 
[35, 96]

>  <energy_score>  (178) 
37.62296255219184

>  <distance_score>  (178) 
1.976110470220761

>  <path>  (178) 
/opt/xchem-fragalysis-2/maxwin/BulkDock/SCRATCH/511017/C8131-P96/C8131-P96.minimised.mol

>  <scratch_subdir>  (178) 
/opt/xchem-fragalysis-2/maxwin/BulkDock/SCRATCH/511017/C8131-P96

>  <fragmenstein_runtime>  (178) 
4.976080656051636

>  <fragmenstein_outcome>  (178) 
too moved

>  <fragmenstein_mode>  (178) 
expansion

>  <fragmenstein_error>  (178) 


$$$$
C8132-P35
     RDKit          3D

 42 43  0  0  0  0  0  0  0  0999 V2000
  -10.7195  -27.9063   26.3958 C   0  0  0  0  0  0  0  0  0  0  0  0
  -11.9214  -27.8106   27.2343 C   0  0  0  0  0  0  0  0  0  0  0  0
  -12.9241  -27.0138   26.9767 N   0  0  0  0  0  0  0  0  0  0  0  0
  -13.4868  -26.7799   28.1994 C   0  0  0  0  0  0  0  0  0  0  0  0
  -14.2071  -25.5133   28.4057 C   0  0  0  0  0  0  0  0  0  0  0  0
  -13.1536  -24.3984   28.2069 C   0  0  0  0  0  0  0  0  0  0  0  0
  -12.6839  -24.2287   27.1177 O   0  0  0  0  0  0  0  0  0  0  0  0
  -12.8705  -23.7623   29.4528 N   0  0  0  0  0  0  0  0  0  0  0  0
  -11.8768  -22.7974   29.8093 C   0  0  0  0  0  0  0  0  0  0  0  0
  -11.6720  -21.6822   28.8490 C   0  0  0  0  0  0  0  0  0  0  0  0
  -11.9534  -22.3014   31.2717 C   0  0  0  0  0  0  0  0  0  0  0  0
  -11.2421  -23.3075   31.9769 N   0  0  0  0  0  0  0  0  0  0  0  0
  -11.3872  -24.7174   31.9811 C   0  0  0  0  0  0  0  0  0  0  0  0
  -12.1995  -25.4214   31.4542 O   0  0  0  0  0  0  0  0  0  0  0  0
  -10.2111  -25.3448   32.7224 C   0  0  0  0  0  0  0  0  0  0  0  0
   -9.6394  -26.3111   31.7634 C   0  0  0  0  0  0  0  0  0  0  0  0
   -9.8250  -26.4940   30.4082 C   0  0  0  0  0  0  0  0  0  0  0  0
   -9.5149  -27.8408   30.2291 C   0  0  0  0  0  0  0  0  0  0  0  0
   -9.0629  -28.4153   31.3412 N   0  0  0  0  0  0  0  0  0  0  0  0
   -8.8744  -27.3593   32.1536 N   0  0  0  0  0  0  0  0  0  0  0  0
  -13.0670  -27.7180   29.1115 C   0  0  0  0  0  0  0  0  0  0  0  0
  -12.1091  -28.4303   28.4418 N   0  0  0  0  0  0  0  0  0  0  0  0
  -10.7922  -27.1546   25.6081 H   0  0  0  0  0  0  0  0  0  0  0  0
  -10.6392  -28.8565   25.8789 H   0  0  0  0  0  0  0  0  0  0  0  0
   -9.8154  -27.7331   26.9818 H   0  0  0  0  0  0  0  0  0  0  0  0
  -14.6861  -25.4748   29.3879 H   0  0  0  0  0  0  0  0  0  0  0  0
  -14.9914  -25.3935   27.6514 H   0  0  0  0  0  0  0  0  0  0  0  0
  -13.4054  -24.2224   30.1894 H   0  0  0  0  0  0  0  0  0  0  0  0
  -10.9752  -23.4046   29.6732 H   0  0  0  0  0  0  0  0  0  0  0  0
  -11.7016  -22.0001   27.8057 H   0  0  0  0  0  0  0  0  0  0  0  0
  -12.3887  -20.8906   29.0249 H   0  0  0  0  0  0  0  0  0  0  0  0
  -10.6795  -21.2760   29.0367 H   0  0  0  0  0  0  0  0  0  0  0  0
  -12.9804  -22.2464   31.6417 H   0  0  0  0  0  0  0  0  0  0  0  0
  -11.4233  -21.3615   31.4323 H   0  0  0  0  0  0  0  0  0  0  0  0
  -10.4871  -23.0526   32.6014 H   0  0  0  0  0  0  0  0  0  0  0  0
   -9.4570  -24.6160   33.0124 H   0  0  0  0  0  0  0  0  0  0  0  0
  -10.5576  -25.8664   33.6084 H   0  0  0  0  0  0  0  0  0  0  0  0
  -10.3084  -25.8388   29.6957 H   0  0  0  0  0  0  0  0  0  0  0  0
   -9.5763  -28.4310   29.3333 H   0  0  0  0  0  0  0  0  0  0  0  0
   -8.3445  -27.5081   33.0124 H   0  0  0  0  0  0  0  0  0  0  0  0
  -13.2452  -27.8427   30.1713 H   0  0  0  0  0  0  0  0  0  0  0  0
  -11.5040  -29.1175   28.8639 H   0  0  0  0  0  0  0  0  0  0  0  0
  1  2  1  0
  2  3  2  0
  3  4  1  0
  4  5  1  0
  5  6  1  0
  6  7  2  0
  6  8  1  0
  8  9  1  0
  9 10  1  0
  9 11  1  0
 11 12  1  0
 12 13  1  0
 13 14  2  0
 13 15  1  0
 15 16  1  0
 16 17  2  0
 17 18  1  0
 18 19  2  0
 19 20  1  0
  4 21  2  0
 21 22  1  0
 22  2  1  0
 20 16  1  0
  1 23  1  0
  1 24  1  0
  1 25  1  0
  5 26  1  0
  5 27  1  0
  8 28  1  0
  9 29  1  0
 10 30  1  0
 10 31  1  0
 10 32  1  0
 11 33  1  0
 11 34  1  0
 12 35  1  0
 15 36  1  0
 15 37  1  0
 17 38  1  0
 18 39  1  0
 20 40  1  0
 21 41  1  0
 22 42  1  0
M  END
>  <Energy>  (179) 
80.019062596652759

>  <compound_id>  (179) 
8132

>  <target_id>  (179) 
1

>  <reference_id>  (179) 
35

>  <inspiration_ids>  (179) 
[35, 96]

>  <energy_score>  (179) 
10.83849443451038

>  <distance_score>  (179) 
4.045967878988478

>  <path>  (179) 
/opt/xchem-fragalysis-2/maxwin/BulkDock/SCRATCH/511017/C8132-P35/C8132-P35.minimised.mol

>  <scratch_subdir>  (179) 
/opt/xchem-fragalysis-2/maxwin/BulkDock/SCRATCH/511017/C8132-P35

>  <fragmenstein_runtime>  (179) 
13.849933862686157

>  <fragmenstein_outcome>  (179) 
too moved

>  <fragmenstein_mode>  (179) 
expansion

>  <fragmenstein_error>  (179) 


$$$$
C8132-P96
     RDKit          3D

 42 43  0  0  0  0  0  0  0  0999 V2000
  -11.4429  -25.3073   26.6923 C   0  0  0  0  0  0  0  0  0  0  0  0
  -11.0816  -24.2894   27.6821 C   0  0  0  0  0  0  0  0  0  0  0  0
  -11.8526  -23.3194   28.0979 N   0  0  0  0  0  0  0  0  0  0  0  0
  -11.1259  -22.6067   29.0260 C   0  0  0  0  0  0  0  0  0  0  0  0
  -11.8485  -21.4729   29.6353 C   0  0  0  0  0  0  0  0  0  0  0  0
  -11.4105  -20.8101   30.9184 C   0  0  0  0  0  0  0  0  0  0  0  0
  -10.3900  -20.2533   30.9877 O   0  0  0  0  0  0  0  0  0  0  0  0
  -12.5129  -21.0254   31.9907 N   0  0  0  0  0  0  0  0  0  0  0  0
  -12.6236  -20.5095   33.3556 C   0  0  0  0  0  0  0  0  0  0  0  0
  -14.0811  -20.3650   33.7621 C   0  0  0  0  0  0  0  0  0  0  0  0
  -11.8169  -21.3772   34.3472 C   0  0  0  0  0  0  0  0  0  0  0  0
  -10.7060  -22.0043   33.6781 N   0  0  0  0  0  0  0  0  0  0  0  0
   -9.6392  -23.0002   34.2108 C   0  0  0  0  0  0  0  0  0  0  0  0
   -9.4529  -23.4029   35.2902 O   0  0  0  0  0  0  0  0  0  0  0  0
   -8.8920  -23.4704   32.9865 C   0  0  0  0  0  0  0  0  0  0  0  0
   -9.8404  -24.3207   32.2081 C   0  0  0  0  0  0  0  0  0  0  0  0
  -11.1858  -24.2363   31.8886 C   0  0  0  0  0  0  0  0  0  0  0  0
  -11.4633  -25.3622   31.1113 C   0  0  0  0  0  0  0  0  0  0  0  0
  -10.3871  -26.1246   30.9670 N   0  0  0  0  0  0  0  0  0  0  0  0
   -9.4275  -25.4929   31.6647 N   0  0  0  0  0  0  0  0  0  0  0  0
   -9.8864  -23.1802   29.1612 C   0  0  0  0  0  0  0  0  0  0  0  0
   -9.8886  -24.2763   28.3422 N   0  0  0  0  0  0  0  0  0  0  0  0
  -12.3324  -25.0017   26.1346 H   0  0  0  0  0  0  0  0  0  0  0  0
  -11.6846  -26.2384   27.2099 H   0  0  0  0  0  0  0  0  0  0  0  0
  -10.6259  -25.4683   25.9881 H   0  0  0  0  0  0  0  0  0  0  0  0
  -12.8531  -21.8680   29.7778 H   0  0  0  0  0  0  0  0  0  0  0  0
  -11.8665  -20.6672   28.9010 H   0  0  0  0  0  0  0  0  0  0  0  0
  -13.3129  -21.4874   31.5677 H   0  0  0  0  0  0  0  0  0  0  0  0
  -12.1472  -19.5237   33.3335 H   0  0  0  0  0  0  0  0  0  0  0  0
  -14.5844  -21.3376   33.7900 H   0  0  0  0  0  0  0  0  0  0  0  0
  -14.1681  -19.9033   34.7484 H   0  0  0  0  0  0  0  0  0  0  0  0
  -14.6228  -19.7358   33.0474 H   0  0  0  0  0  0  0  0  0  0  0  0
  -12.4474  -22.1967   34.6989 H   0  0  0  0  0  0  0  0  0  0  0  0
  -11.4757  -20.7892   35.1991 H   0  0  0  0  0  0  0  0  0  0  0  0
  -10.5310  -21.8119   32.7028 H   0  0  0  0  0  0  0  0  0  0  0  0
   -8.5428  -22.6181   32.3995 H   0  0  0  0  0  0  0  0  0  0  0  0
   -8.0110  -24.0357   33.3099 H   0  0  0  0  0  0  0  0  0  0  0  0
  -11.9075  -23.4935   32.1760 H   0  0  0  0  0  0  0  0  0  0  0  0
  -12.3950  -25.6568   30.6463 H   0  0  0  0  0  0  0  0  0  0  0  0
   -8.5014  -25.9096   31.7101 H   0  0  0  0  0  0  0  0  0  0  0  0
   -9.0398  -22.9960   29.7943 H   0  0  0  0  0  0  0  0  0  0  0  0
   -9.1620  -24.9755   28.2792 H   0  0  0  0  0  0  0  0  0  0  0  0
  1  2  1  0
  2  3  2  0
  3  4  1  0
  4  5  1  0
  5  6  1  0
  6  7  2  0
  6  8  1  0
  8  9  1  0
  9 10  1  0
  9 11  1  0
 11 12  1  0
 12 13  1  0
 13 14  2  0
 13 15  1  0
 15 16  1  0
 16 17  2  0
 17 18  1  0
 18 19  2  0
 19 20  1  0
  4 21  2  0
 21 22  1  0
 22  2  1  0
 20 16  1  0
  1 23  1  0
  1 24  1  0
  1 25  1  0
  5 26  1  0
  5 27  1  0
  8 28  1  0
  9 29  1  0
 10 30  1  0
 10 31  1  0
 10 32  1  0
 11 33  1  0
 11 34  1  0
 12 35  1  0
 15 36  1  0
 15 37  1  0
 17 38  1  0
 18 39  1  0
 20 40  1  0
 21 41  1  0
 22 42  1  0
M  END
>  <Energy>  (180) 
76.315527844223467

>  <compound_id>  (180) 
8132

>  <target_id>  (180) 
1

>  <reference_id>  (180) 
96

>  <inspiration_ids>  (180) 
[35, 96]

>  <energy_score>  (180) 
14.561343275014735

>  <distance_score>  (180) 
1.6884062911750197

>  <path>  (180) 
/opt/xchem-fragalysis-2/maxwin/BulkDock/SCRATCH/511017/C8132-P96/C8132-P96.minimised.mol

>  <scratch_subdir>  (180) 
/opt/xchem-fragalysis-2/maxwin/BulkDock/SCRATCH/511017/C8132-P96

>  <fragmenstein_runtime>  (180) 
8.043984413146973

>  <fragmenstein_outcome>  (180) 
too moved

>  <fragmenstein_mode>  (180) 
expansion

>  <fragmenstein_error>  (180) 


$$$$
C8133-P35
     RDKit          3D

 42 43  0  0  0  0  0  0  0  0999 V2000
  -12.1995  -24.5883   26.1811 C   0  0  0  0  0  0  0  0  0  0  0  0
  -11.3831  -24.7030   27.3963 C   0  0  0  0  0  0  0  0  0  0  0  0
  -10.7576  -25.8685   27.7566 N   0  0  0  0  0  0  0  0  0  0  0  0
   -9.9742  -25.5969   28.8304 C   0  0  0  0  0  0  0  0  0  0  0  0
  -10.1591  -24.3772   29.2476 N   0  0  0  0  0  0  0  0  0  0  0  0
  -11.0944  -23.8285   28.4226 C   0  0  0  0  0  0  0  0  0  0  0  0
  -11.6123  -22.4884   28.7518 C   0  0  0  0  0  0  0  0  0  0  0  0
  -12.3976  -22.5608   30.0705 C   0  0  0  0  0  0  0  0  0  0  0  0
  -13.4384  -23.0917   30.1303 O   0  0  0  0  0  0  0  0  0  0  0  0
  -11.5758  -21.8269   31.1695 N   0  0  0  0  0  0  0  0  0  0  0  0
  -11.8251  -21.6795   32.5929 C   0  0  0  0  0  0  0  0  0  0  0  0
  -13.2386  -22.0668   33.0040 C   0  0  0  0  0  0  0  0  0  0  0  0
  -10.7476  -22.3551   33.4607 C   0  0  0  0  0  0  0  0  0  0  0  0
  -10.6590  -23.7836   33.3275 N   0  0  0  0  0  0  0  0  0  0  0  0
   -9.6294  -24.6529   32.5997 C   0  0  0  0  0  0  0  0  0  0  0  0
   -8.6487  -24.3600   32.0572 O   0  0  0  0  0  0  0  0  0  0  0  0
  -10.0007  -26.0990   32.7580 C   0  0  0  0  0  0  0  0  0  0  0  0
  -11.0048  -26.4312   31.7494 C   0  0  0  0  0  0  0  0  0  0  0  0
  -12.1015  -25.7628   31.2566 C   0  0  0  0  0  0  0  0  0  0  0  0
  -12.6780  -26.6431   30.3431 C   0  0  0  0  0  0  0  0  0  0  0  0
  -11.9672  -27.7676   30.2116 N   0  0  0  0  0  0  0  0  0  0  0  0
  -10.9366  -27.5879   31.0488 N   0  0  0  0  0  0  0  0  0  0  0  0
  -11.9807  -25.4031   25.4844 H   0  0  0  0  0  0  0  0  0  0  0  0
  -12.0051  -23.6432   25.6662 H   0  0  0  0  0  0  0  0  0  0  0  0
  -13.2639  -24.6357   26.4272 H   0  0  0  0  0  0  0  0  0  0  0  0
  -10.8204  -26.7650   27.2968 H   0  0  0  0  0  0  0  0  0  0  0  0
   -9.3021  -26.3215   29.2630 H   0  0  0  0  0  0  0  0  0  0  0  0
  -12.2871  -22.1507   27.9727 H   0  0  0  0  0  0  0  0  0  0  0  0
  -10.8010  -21.7621   28.7979 H   0  0  0  0  0  0  0  0  0  0  0  0
  -10.6807  -21.5554   30.7957 H   0  0  0  0  0  0  0  0  0  0  0  0
  -11.7121  -20.6102   32.7917 H   0  0  0  0  0  0  0  0  0  0  0  0
  -13.4347  -23.1304   32.8528 H   0  0  0  0  0  0  0  0  0  0  0  0
  -13.9914  -21.5191   32.4304 H   0  0  0  0  0  0  0  0  0  0  0  0
  -13.3939  -21.8306   34.0593 H   0  0  0  0  0  0  0  0  0  0  0  0
  -10.9432  -22.1516   34.5194 H   0  0  0  0  0  0  0  0  0  0  0  0
   -9.7644  -21.9390   33.2232 H   0  0  0  0  0  0  0  0  0  0  0  0
  -11.4376  -24.3544   33.6152 H   0  0  0  0  0  0  0  0  0  0  0  0
  -10.3419  -26.3116   33.7681 H   0  0  0  0  0  0  0  0  0  0  0  0
   -9.0881  -26.6924   32.6210 H   0  0  0  0  0  0  0  0  0  0  0  0
  -12.4756  -24.7990   31.5528 H   0  0  0  0  0  0  0  0  0  0  0  0
  -13.5798  -26.5058   29.7615 H   0  0  0  0  0  0  0  0  0  0  0  0
  -10.2033  -28.2887   31.0570 H   0  0  0  0  0  0  0  0  0  0  0  0
  1  2  1  0
  2  3  1  0
  3  4  1  0
  4  5  2  0
  5  6  1  0
  6  7  1  0
  7  8  1  0
  8  9  2  0
  8 10  1  0
 10 11  1  0
 11 12  1  0
 11 13  1  0
 13 14  1  0
 14 15  1  0
 15 16  2  0
 15 17  1  0
 17 18  1  0
 18 19  2  0
 19 20  1  0
 20 21  2  0
 21 22  1  0
  6  2  2  0
 22 18  1  0
  1 23  1  0
  1 24  1  0
  1 25  1  0
  3 26  1  0
  4 27  1  0
  7 28  1  0
  7 29  1  0
 10 30  1  0
 11 31  1  0
 12 32  1  0
 12 33  1  0
 12 34  1  0
 13 35  1  0
 13 36  1  0
 14 37  1  0
 17 38  1  0
 17 39  1  0
 19 40  1  0
 20 41  1  0
 22 42  1  0
M  END
>  <Energy>  (181) 
69.23514723745312

>  <compound_id>  (181) 
8133

>  <target_id>  (181) 
1

>  <reference_id>  (181) 
35

>  <inspiration_ids>  (181) 
[35, 96]

>  <energy_score>  (181) 
-6.216255228464377

>  <distance_score>  (181) 
3.2025903371278646

>  <path>  (181) 
/opt/xchem-fragalysis-2/maxwin/BulkDock/SCRATCH/511017/C8133-P35/C8133-P35.minimised.mol

>  <scratch_subdir>  (181) 
/opt/xchem-fragalysis-2/maxwin/BulkDock/SCRATCH/511017/C8133-P35

>  <fragmenstein_runtime>  (181) 
8.291857242584229

>  <fragmenstein_outcome>  (181) 
too moved

>  <fragmenstein_mode>  (181) 
expansion

>  <fragmenstein_error>  (181) 


$$$$
C8133-P96
     RDKit          3D

 42 43  0  0  0  0  0  0  0  0999 V2000
  -12.3220  -25.7843   27.3681 C   0  0  0  0  0  0  0  0  0  0  0  0
  -11.1761  -25.7277   28.2999 C   0  0  0  0  0  0  0  0  0  0  0  0
   -9.8986  -25.5863   27.8444 N   0  0  0  0  0  0  0  0  0  0  0  0
   -9.1098  -25.2376   28.8933 C   0  0  0  0  0  0  0  0  0  0  0  0
   -9.7801  -25.2388   30.0110 N   0  0  0  0  0  0  0  0  0  0  0  0
  -11.0586  -25.6226   29.6765 C   0  0  0  0  0  0  0  0  0  0  0  0
  -12.0884  -25.3874   30.7216 C   0  0  0  0  0  0  0  0  0  0  0  0
  -12.7061  -24.0276   30.4331 C   0  0  0  0  0  0  0  0  0  0  0  0
  -13.8404  -23.8194   30.6149 O   0  0  0  0  0  0  0  0  0  0  0  0
  -11.6026  -23.1258   29.8015 N   0  0  0  0  0  0  0  0  0  0  0  0
  -11.6948  -21.8485   29.1923 C   0  0  0  0  0  0  0  0  0  0  0  0
  -10.8972  -21.9493   27.9105 C   0  0  0  0  0  0  0  0  0  0  0  0
  -11.2844  -20.6000   29.9681 C   0  0  0  0  0  0  0  0  0  0  0  0
  -11.2167  -20.8104   31.3740 N   0  0  0  0  0  0  0  0  0  0  0  0
  -12.3236  -21.1736   32.3884 C   0  0  0  0  0  0  0  0  0  0  0  0
  -13.4745  -21.2809   32.2435 O   0  0  0  0  0  0  0  0  0  0  0  0
  -11.6255  -21.4994   33.6997 C   0  0  0  0  0  0  0  0  0  0  0  0
  -10.5464  -22.5458   33.5721 C   0  0  0  0  0  0  0  0  0  0  0  0
   -9.8194  -23.1245   32.5540 C   0  0  0  0  0  0  0  0  0  0  0  0
   -8.9490  -24.0393   33.1525 C   0  0  0  0  0  0  0  0  0  0  0  0
   -9.0578  -24.0163   34.4772 N   0  0  0  0  0  0  0  0  0  0  0  0
  -10.0338  -23.1131   34.7034 N   0  0  0  0  0  0  0  0  0  0  0  0
  -13.0641  -25.0214   27.6245 H   0  0  0  0  0  0  0  0  0  0  0  0
  -12.8106  -26.7617   27.4254 H   0  0  0  0  0  0  0  0  0  0  0  0
  -12.0178  -25.6085   26.3320 H   0  0  0  0  0  0  0  0  0  0  0  0
   -9.6228  -25.6840   26.8815 H   0  0  0  0  0  0  0  0  0  0  0  0
   -8.0525  -25.0492   28.8147 H   0  0  0  0  0  0  0  0  0  0  0  0
  -11.6548  -25.3771   31.7194 H   0  0  0  0  0  0  0  0  0  0  0  0
  -12.8628  -26.1589   30.6699 H   0  0  0  0  0  0  0  0  0  0  0  0
  -10.7029  -23.5896   29.8730 H   0  0  0  0  0  0  0  0  0  0  0  0
  -12.7349  -21.7899   28.9473 H   0  0  0  0  0  0  0  0  0  0  0  0
  -10.9097  -20.9952   27.3927 H   0  0  0  0  0  0  0  0  0  0  0  0
   -9.8582  -22.2248   28.1219 H   0  0  0  0  0  0  0  0  0  0  0  0
  -11.3067  -22.7114   27.2382 H   0  0  0  0  0  0  0  0  0  0  0  0
  -12.0025  -19.8207   29.7438 H   0  0  0  0  0  0  0  0  0  0  0  0
  -10.3201  -20.2128   29.6458 H   0  0  0  0  0  0  0  0  0  0  0  0
  -10.3108  -20.8869   31.8202 H   0  0  0  0  0  0  0  0  0  0  0  0
  -12.3939  -21.8596   34.3941 H   0  0  0  0  0  0  0  0  0  0  0  0
  -11.2317  -20.5665   34.1068 H   0  0  0  0  0  0  0  0  0  0  0  0
   -9.8530  -22.9298   31.5025 H   0  0  0  0  0  0  0  0  0  0  0  0
   -8.2243  -24.6948   32.6852 H   0  0  0  0  0  0  0  0  0  0  0  0
  -10.3594  -22.9472   35.6584 H   0  0  0  0  0  0  0  0  0  0  0  0
  1  2  1  0
  2  3  1  0
  3  4  1  0
  4  5  2  0
  5  6  1  0
  6  7  1  0
  7  8  1  0
  8  9  2  0
  8 10  1  0
 10 11  1  0
 11 12  1  0
 11 13  1  0
 13 14  1  0
 14 15  1  0
 15 16  2  0
 15 17  1  0
 17 18  1  0
 18 19  2  0
 19 20  1  0
 20 21  2  0
 21 22  1  0
  6  2  2  0
 22 18  1  0
  1 23  1  0
  1 24  1  0
  1 25  1  0
  3 26  1  0
  4 27  1  0
  7 28  1  0
  7 29  1  0
 10 30  1  0
 11 31  1  0
 12 32  1  0
 12 33  1  0
 12 34  1  0
 13 35  1  0
 13 36  1  0
 14 37  1  0
 17 38  1  0
 17 39  1  0
 19 40  1  0
 20 41  1  0
 22 42  1  0
M  END
>  <Energy>  (182) 
87.571918290477385

>  <compound_id>  (182) 
8133

>  <target_id>  (182) 
1

>  <reference_id>  (182) 
96

>  <inspiration_ids>  (182) 
[35, 96]

>  <energy_score>  (182) 
12.120515824560755

>  <distance_score>  (182) 
2.4747419277370146

>  <path>  (182) 
/opt/xchem-fragalysis-2/maxwin/BulkDock/SCRATCH/511017/C8133-P96/C8133-P96.minimised.mol

>  <scratch_subdir>  (182) 
/opt/xchem-fragalysis-2/maxwin/BulkDock/SCRATCH/511017/C8133-P96

>  <fragmenstein_runtime>  (182) 
5.737114191055298

>  <fragmenstein_outcome>  (182) 
too moved

>  <fragmenstein_mode>  (182) 
expansion

>  <fragmenstein_error>  (182) 


$$$$
C8137-P35
     RDKit          3D

 40 41  0  0  0  0  0  0  0  0999 V2000
   -9.1052  -18.4072   28.0806 C   0  0  0  0  0  0  0  0  0  0  0  0
  -10.8899  -18.5439   29.1738 C   0  0  0  0  0  0  0  0  0  0  0  0
  -10.6495  -20.6237   29.2836 N   0  0  0  0  0  0  0  0  0  0  0  0
  -10.7918  -20.3967   31.0131 C   0  0  0  0  0  0  0  0  0  0  0  0
  -11.7712  -21.2169   32.0066 C   0  0  0  0  0  0  0  0  0  0  0  0
  -12.6752  -22.2166   31.5531 N   0  0  0  0  0  0  0  0  0  0  0  0
  -12.6518  -23.6289   31.7011 C   0  0  0  0  0  0  0  0  0  0  0  0
  -11.8246  -24.3481   32.1768 O   0  0  0  0  0  0  0  0  0  0  0  0
  -13.9014  -24.2456   31.0350 C   0  0  0  0  0  0  0  0  0  0  0  0
  -13.5926  -25.5693   30.4212 C   0  0  0  0  0  0  0  0  0  0  0  0
  -13.8623  -26.1171   29.1894 C   0  0  0  0  0  0  0  0  0  0  0  0
  -13.2503  -27.3855   29.2222 C   0  0  0  0  0  0  0  0  0  0  0  0
  -12.6561  -27.6417   30.3900 N   0  0  0  0  0  0  0  0  0  0  0  0
  -12.8668  -26.5175   31.0904 N   0  0  0  0  0  0  0  0  0  0  0  0
  -11.5482  -21.6938   28.8832 C   0  0  0  0  0  0  0  0  0  0  0  0
  -12.6568  -21.6540   28.5087 O   0  0  0  0  0  0  0  0  0  0  0  0
  -11.0363  -23.0876   28.8009 C   0  0  0  0  0  0  0  0  0  0  0  0
  -10.6785  -24.0029   29.7777 N   0  0  0  0  0  0  0  0  0  0  0  0
  -10.3602  -25.2028   29.2197 C   0  0  0  0  0  0  0  0  0  0  0  0
  -10.6738  -25.2149   27.9551 N   0  0  0  0  0  0  0  0  0  0  0  0
  -11.1695  -23.9534   27.7076 C   0  0  0  0  0  0  0  0  0  0  0  0
  -11.7931  -23.7609   26.4372 C   0  0  0  0  0  0  0  0  0  0  0  0
  -12.2960  -23.7765   25.3910 N   0  0  0  0  0  0  0  0  0  0  0  0
   -8.3596  -17.7231   28.5045 H   0  0  0  0  0  0  0  0  0  0  0  0
   -9.2784  -17.8498   27.1495 H   0  0  0  0  0  0  0  0  0  0  0  0
   -8.4939  -19.2564   28.2465 H   0  0  0  0  0  0  0  0  0  0  0  0
  -11.9055  -18.5101   28.6208 H   0  0  0  0  0  0  0  0  0  0  0  0
  -11.5027  -17.7048   29.5099 H   0  0  0  0  0  0  0  0  0  0  0  0
  -10.1463  -21.2637   31.0702 H   0  0  0  0  0  0  0  0  0  0  0  0
  -10.1505  -19.9034   31.7479 H   0  0  0  0  0  0  0  0  0  0  0  0
  -12.2847  -20.5788   32.7235 H   0  0  0  0  0  0  0  0  0  0  0  0
  -11.0950  -21.7642   32.6869 H   0  0  0  0  0  0  0  0  0  0  0  0
  -13.5770  -21.9399   31.1782 H   0  0  0  0  0  0  0  0  0  0  0  0
  -14.2380  -23.5863   30.2343 H   0  0  0  0  0  0  0  0  0  0  0  0
  -14.6916  -24.3363   31.7867 H   0  0  0  0  0  0  0  0  0  0  0  0
  -14.3965  -25.6639   28.3677 H   0  0  0  0  0  0  0  0  0  0  0  0
  -13.2127  -28.1318   28.4400 H   0  0  0  0  0  0  0  0  0  0  0  0
  -12.4645  -26.4078   32.0213 H   0  0  0  0  0  0  0  0  0  0  0  0
  -10.6175  -23.8415   30.7757 H   0  0  0  0  0  0  0  0  0  0  0  0
   -9.9635  -26.0305   29.7953 H   0  0  0  0  0  0  0  0  0  0  0  0
  1  2  1  0
  2  3  1  0
  3  4  1  0
  4  5  1  0
  5  6  1  0
  6  7  1  0
  7  8  2  0
  7  9  1  0
  9 10  1  0
 10 11  2  0
 11 12  1  0
 12 13  2  0
 13 14  1  0
  3 15  1  0
 15 16  2  0
 15 17  1  0
 17 18  1  0
 18 19  1  0
 19 20  2  0
 20 21  1  0
 21 22  1  0
 22 23  3  0
 14 10  1  0
 21 17  2  0
  1 24  1  0
  1 25  1  0
  1 26  1  0
  2 27  1  0
  2 28  1  0
  4 29  1  0
  4 30  1  0
  5 31  1  0
  5 32  1  0
  6 33  1  0
  9 34  1  0
  9 35  1  0
 11 36  1  0
 12 37  1  0
 14 38  1  0
 18 39  1  0
 19 40  1  0
M  END
>  <Energy>  (183) 
385.05004404458992

>  <compound_id>  (183) 
8137

>  <target_id>  (183) 
1

>  <reference_id>  (183) 
35

>  <inspiration_ids>  (183) 
[35, 96]

>  <energy_score>  (183) 
328.5814574953572

>  <distance_score>  (183) 
3.5788450353005503

>  <path>  (183) 
/opt/xchem-fragalysis-2/maxwin/BulkDock/SCRATCH/511017/C8137-P35/C8137-P35.minimised.mol

>  <scratch_subdir>  (183) 
/opt/xchem-fragalysis-2/maxwin/BulkDock/SCRATCH/511017/C8137-P35

>  <fragmenstein_runtime>  (183) 
15.127829313278198

>  <fragmenstein_outcome>  (183) 
too moved

>  <fragmenstein_mode>  (183) 
expansion

>  <fragmenstein_error>  (183) 


$$$$
C8137-P96
     RDKit          3D

 40 41  0  0  0  0  0  0  0  0999 V2000
  -11.2325  -20.5051   29.0914 C   0  0  0  0  0  0  0  0  0  0  0  0
  -12.0691  -21.5458   29.7680 C   0  0  0  0  0  0  0  0  0  0  0  0
  -11.6335  -22.8668   29.5892 N   0  0  0  0  0  0  0  0  0  0  0  0
  -10.9447  -22.5835   30.8949 C   0  0  0  0  0  0  0  0  0  0  0  0
  -10.6754  -21.3042   31.8185 C   0  0  0  0  0  0  0  0  0  0  0  0
   -9.9833  -21.9327   32.8725 N   0  0  0  0  0  0  0  0  0  0  0  0
  -10.4592  -22.6268   34.0082 C   0  0  0  0  0  0  0  0  0  0  0  0
  -11.5640  -22.7880   34.4098 O   0  0  0  0  0  0  0  0  0  0  0  0
   -9.2592  -23.3173   34.6826 C   0  0  0  0  0  0  0  0  0  0  0  0
   -8.8913  -24.3611   33.6945 C   0  0  0  0  0  0  0  0  0  0  0  0
   -9.6533  -24.9199   32.6899 C   0  0  0  0  0  0  0  0  0  0  0  0
   -8.7649  -25.5790   31.8944 C   0  0  0  0  0  0  0  0  0  0  0  0
   -7.6011  -25.6980   32.5060 N   0  0  0  0  0  0  0  0  0  0  0  0
   -7.6255  -24.7838   33.4597 N   0  0  0  0  0  0  0  0  0  0  0  0
  -12.3391  -24.0890   29.6640 C   0  0  0  0  0  0  0  0  0  0  0  0
  -13.4678  -24.3169   29.9866 O   0  0  0  0  0  0  0  0  0  0  0  0
  -11.5088  -25.1313   29.1673 C   0  0  0  0  0  0  0  0  0  0  0  0
  -10.3591  -24.9123   28.4525 N   0  0  0  0  0  0  0  0  0  0  0  0
  -10.0327  -26.0821   27.8650 C   0  0  0  0  0  0  0  0  0  0  0  0
  -10.8203  -27.0631   28.2488 N   0  0  0  0  0  0  0  0  0  0  0  0
  -11.7670  -26.4731   29.0363 C   0  0  0  0  0  0  0  0  0  0  0  0
  -12.8958  -27.2087   29.5105 C   0  0  0  0  0  0  0  0  0  0  0  0
  -13.8041  -27.8151   29.9072 N   0  0  0  0  0  0  0  0  0  0  0  0
  -10.2502  -20.3291   29.4993 H   0  0  0  0  0  0  0  0  0  0  0  0
  -11.7852  -19.5742   29.1610 H   0  0  0  0  0  0  0  0  0  0  0  0
  -11.0675  -20.7855   28.0464 H   0  0  0  0  0  0  0  0  0  0  0  0
  -12.8387  -21.6807   29.0291 H   0  0  0  0  0  0  0  0  0  0  0  0
  -12.7005  -21.2844   30.6322 H   0  0  0  0  0  0  0  0  0  0  0  0
  -11.4998  -23.2349   31.5844 H   0  0  0  0  0  0  0  0  0  0  0  0
   -9.9636  -23.0553   30.7361 H   0  0  0  0  0  0  0  0  0  0  0  0
  -11.6014  -20.9036   32.2441 H   0  0  0  0  0  0  0  0  0  0  0  0
  -10.0869  -20.4835   31.4351 H   0  0  0  0  0  0  0  0  0  0  0  0
   -8.9679  -21.9330   32.8870 H   0  0  0  0  0  0  0  0  0  0  0  0
   -8.3797  -22.7082   34.8560 H   0  0  0  0  0  0  0  0  0  0  0  0
   -9.5547  -23.7319   35.6333 H   0  0  0  0  0  0  0  0  0  0  0  0
  -10.6899  -24.7582   32.4670 H   0  0  0  0  0  0  0  0  0  0  0  0
   -8.9315  -25.9948   30.9193 H   0  0  0  0  0  0  0  0  0  0  0  0
   -6.7270  -24.5014   33.8551 H   0  0  0  0  0  0  0  0  0  0  0  0
   -9.9488  -24.0043   28.2753 H   0  0  0  0  0  0  0  0  0  0  0  0
   -9.2009  -26.1926   27.1880 H   0  0  0  0  0  0  0  0  0  0  0  0
  1  2  1  0
  2  3  1  0
  3  4  1  0
  4  5  1  0
  5  6  1  0
  6  7  1  0
  7  8  2  0
  7  9  1  0
  9 10  1  0
 10 11  2  0
 11 12  1  0
 12 13  2  0
 13 14  1  0
  3 15  1  0
 15 16  2  0
 15 17  1  0
 17 18  1  0
 18 19  1  0
 19 20  2  0
 20 21  1  0
 21 22  1  0
 22 23  3  0
 14 10  1  0
 21 17  2  0
  1 24  1  0
  1 25  1  0
  1 26  1  0
  2 27  1  0
  2 28  1  0
  4 29  1  0
  4 30  1  0
  5 31  1  0
  5 32  1  0
  6 33  1  0
  9 34  1  0
  9 35  1  0
 11 36  1  0
 12 37  1  0
 14 38  1  0
 18 39  1  0
 19 40  1  0
M  END
>  <Energy>  (184) 
151.66176525743765

>  <compound_id>  (184) 
8137

>  <target_id>  (184) 
1

>  <reference_id>  (184) 
96

>  <inspiration_ids>  (184) 
[35, 96]

>  <energy_score>  (184) 
95.19317870820021

>  <distance_score>  (184) 
2.6940631674327173

>  <path>  (184) 
/opt/xchem-fragalysis-2/maxwin/BulkDock/SCRATCH/511017/C8137-P96/C8137-P96.minimised.mol

>  <scratch_subdir>  (184) 
/opt/xchem-fragalysis-2/maxwin/BulkDock/SCRATCH/511017/C8137-P96

>  <fragmenstein_runtime>  (184) 
9.805253505706787

>  <fragmenstein_outcome>  (184) 
too moved

>  <fragmenstein_mode>  (184) 
expansion

>  <fragmenstein_error>  (184) 


$$$$
C8138-P35
     RDKit          3D

 45 46  0  0  0  0  0  0  0  0999 V2000
  -14.3526  -30.0249   27.5879 C   0  0  0  0  0  0  0  0  0  0  0  0
  -13.2911  -29.2713   28.3734 C   0  0  0  0  0  0  0  0  0  0  0  0
  -13.8245  -28.0190   28.9666 C   0  0  0  0  0  0  0  0  0  0  0  0
  -14.4441  -28.0507   30.1956 N   0  0  0  0  0  0  0  0  0  0  0  0
  -14.7805  -26.8099   30.4553 C   0  0  0  0  0  0  0  0  0  0  0  0
  -14.4013  -25.9763   29.4484 N   0  0  0  0  0  0  0  0  0  0  0  0
  -13.7621  -26.7260   28.4835 C   0  0  0  0  0  0  0  0  0  0  0  0
  -13.1223  -26.2173   27.2847 C   0  0  0  0  0  0  0  0  0  0  0  0
  -12.7731  -26.9563   26.4057 O   0  0  0  0  0  0  0  0  0  0  0  0
  -12.9711  -24.8152   27.4234 N   0  0  0  0  0  0  0  0  0  0  0  0
  -12.4316  -23.7927   26.4760 C   0  0  0  0  0  0  0  0  0  0  0  0
  -11.4531  -24.2441   25.4083 C   0  0  0  0  0  0  0  0  0  0  0  0
  -11.6804  -24.4993   28.1578 C   0  0  0  0  0  0  0  0  0  0  0  0
  -11.8617  -23.4742   29.3005 C   0  0  0  0  0  0  0  0  0  0  0  0
  -11.1207  -23.9434   30.4325 N   0  0  0  0  0  0  0  0  0  0  0  0
  -11.2447  -23.6424   31.8304 C   0  0  0  0  0  0  0  0  0  0  0  0
  -11.9476  -22.8616   32.4008 O   0  0  0  0  0  0  0  0  0  0  0  0
  -10.2497  -24.5405   32.6103 C   0  0  0  0  0  0  0  0  0  0  0  0
  -10.2704  -25.9566   32.1118 C   0  0  0  0  0  0  0  0  0  0  0  0
  -11.2830  -26.6831   31.5171 C   0  0  0  0  0  0  0  0  0  0  0  0
  -10.7075  -27.8798   31.1060 C   0  0  0  0  0  0  0  0  0  0  0  0
   -9.4354  -27.9617   31.4815 N   0  0  0  0  0  0  0  0  0  0  0  0
   -9.1887  -26.7957   32.1166 N   0  0  0  0  0  0  0  0  0  0  0  0
  -15.1905  -30.3109   28.2331 H   0  0  0  0  0  0  0  0  0  0  0  0
  -13.9304  -30.9382   27.1571 H   0  0  0  0  0  0  0  0  0  0  0  0
  -14.7550  -29.4131   26.7739 H   0  0  0  0  0  0  0  0  0  0  0  0
  -12.4246  -29.0674   27.7372 H   0  0  0  0  0  0  0  0  0  0  0  0
  -12.9306  -29.9179   29.1819 H   0  0  0  0  0  0  0  0  0  0  0  0
  -15.2743  -26.4541   31.3512 H   0  0  0  0  0  0  0  0  0  0  0  0
  -14.5195  -24.9732   29.4396 H   0  0  0  0  0  0  0  0  0  0  0  0
  -12.1778  -22.8147   26.9047 H   0  0  0  0  0  0  0  0  0  0  0  0
  -13.3336  -23.5985   25.8796 H   0  0  0  0  0  0  0  0  0  0  0  0
  -11.6095  -25.2794   25.1091 H   0  0  0  0  0  0  0  0  0  0  0  0
  -10.4316  -24.1527   25.7535 H   0  0  0  0  0  0  0  0  0  0  0  0
  -11.5373  -23.5890   24.5376 H   0  0  0  0  0  0  0  0  0  0  0  0
  -11.4410  -25.4524   28.6594 H   0  0  0  0  0  0  0  0  0  0  0  0
  -10.7222  -24.3635   27.6413 H   0  0  0  0  0  0  0  0  0  0  0  0
  -12.9064  -23.3572   29.6021 H   0  0  0  0  0  0  0  0  0  0  0  0
  -11.4760  -22.4886   29.0229 H   0  0  0  0  0  0  0  0  0  0  0  0
  -10.3613  -24.6049   30.3027 H   0  0  0  0  0  0  0  0  0  0  0  0
  -10.4970  -24.5025   33.6698 H   0  0  0  0  0  0  0  0  0  0  0  0
   -9.2559  -24.1088   32.4772 H   0  0  0  0  0  0  0  0  0  0  0  0
  -12.2973  -26.3564   31.3597 H   0  0  0  0  0  0  0  0  0  0  0  0
  -11.1576  -28.7044   30.5703 H   0  0  0  0  0  0  0  0  0  0  0  0
   -8.2520  -26.6564   32.4948 H   0  0  0  0  0  0  0  0  0  0  0  0
  1  2  1  0
  2  3  1  0
  3  4  1  0
  4  5  2  0
  5  6  1  0
  6  7  1  0
  7  8  1  0
  8  9  2  0
  8 10  1  0
 10 11  1  0
 11 12  1  0
 10 13  1  0
 13 14  1  0
 14 15  1  0
 15 16  1  0
 16 17  2  0
 16 18  1  0
 18 19  1  0
 19 20  2  0
 20 21  1  0
 21 22  2  0
 22 23  1  0
  7  3  2  0
 23 19  1  0
  1 24  1  0
  1 25  1  0
  1 26  1  0
  2 27  1  0
  2 28  1  0
  5 29  1  0
  6 30  1  0
 11 31  1  0
 11 32  1  0
 12 33  1  0
 12 34  1  0
 12 35  1  0
 13 36  1  0
 13 37  1  0
 14 38  1  0
 14 39  1  0
 15 40  1  0
 18 41  1  0
 18 42  1  0
 20 43  1  0
 21 44  1  0
 23 45  1  0
M  END
>  <Energy>  (185) 
85.892802533549499

>  <compound_id>  (185) 
8138

>  <target_id>  (185) 
1

>  <reference_id>  (185) 
35

>  <inspiration_ids>  (185) 
[35, 96]

>  <energy_score>  (185) 
53.33093071689024

>  <distance_score>  (185) 
4.488696056409145

>  <path>  (185) 
/opt/xchem-fragalysis-2/maxwin/BulkDock/SCRATCH/511017/C8138-P35/C8138-P35.minimised.mol

>  <scratch_subdir>  (185) 
/opt/xchem-fragalysis-2/maxwin/BulkDock/SCRATCH/511017/C8138-P35

>  <fragmenstein_runtime>  (185) 
16.988270044326782

>  <fragmenstein_outcome>  (185) 
too moved

>  <fragmenstein_mode>  (185) 
expansion

>  <fragmenstein_error>  (185) 


$$$$
C8138-P96
     RDKit          3D

 45 46  0  0  0  0  0  0  0  0999 V2000
  -10.7193  -23.9915   26.1042 C   0  0  0  0  0  0  0  0  0  0  0  0
  -12.2054  -23.7641   26.2819 C   0  0  0  0  0  0  0  0  0  0  0  0
  -13.0031  -25.0121   26.4437 C   0  0  0  0  0  0  0  0  0  0  0  0
  -14.0185  -25.2666   25.5441 N   0  0  0  0  0  0  0  0  0  0  0  0
  -14.5405  -26.4087   25.9170 C   0  0  0  0  0  0  0  0  0  0  0  0
  -13.9034  -26.9142   27.0048 N   0  0  0  0  0  0  0  0  0  0  0  0
  -12.9226  -26.0305   27.3831 C   0  0  0  0  0  0  0  0  0  0  0  0
  -12.0856  -26.2737   28.5418 C   0  0  0  0  0  0  0  0  0  0  0  0
  -12.1267  -27.3495   29.0735 O   0  0  0  0  0  0  0  0  0  0  0  0
  -11.3440  -25.1143   28.8678 N   0  0  0  0  0  0  0  0  0  0  0  0
  -10.2866  -24.8864   29.9113 C   0  0  0  0  0  0  0  0  0  0  0  0
  -10.3415  -25.6223   31.2513 C   0  0  0  0  0  0  0  0  0  0  0  0
  -12.1525  -24.2228   29.8016 C   0  0  0  0  0  0  0  0  0  0  0  0
  -11.9516  -22.6940   29.6745 C   0  0  0  0  0  0  0  0  0  0  0  0
  -11.5978  -22.0893   30.9200 N   0  0  0  0  0  0  0  0  0  0  0  0
  -12.2207  -22.1607   32.2112 C   0  0  0  0  0  0  0  0  0  0  0  0
  -13.2399  -22.6806   32.5588 O   0  0  0  0  0  0  0  0  0  0  0  0
  -11.2926  -21.5174   33.2303 C   0  0  0  0  0  0  0  0  0  0  0  0
  -10.1782  -22.4676   33.5054 C   0  0  0  0  0  0  0  0  0  0  0  0
   -9.1023  -22.9297   32.7785 C   0  0  0  0  0  0  0  0  0  0  0  0
   -8.4125  -23.7946   33.6392 C   0  0  0  0  0  0  0  0  0  0  0  0
   -8.9926  -23.8676   34.8344 N   0  0  0  0  0  0  0  0  0  0  0  0
  -10.0553  -23.0473   34.7355 N   0  0  0  0  0  0  0  0  0  0  0  0
  -10.1633  -23.6193   26.9702 H   0  0  0  0  0  0  0  0  0  0  0  0
  -10.3554  -23.4341   25.2378 H   0  0  0  0  0  0  0  0  0  0  0  0
  -10.4702  -25.0464   25.9619 H   0  0  0  0  0  0  0  0  0  0  0  0
  -12.5899  -23.2037   25.4208 H   0  0  0  0  0  0  0  0  0  0  0  0
  -12.3633  -23.1186   27.1404 H   0  0  0  0  0  0  0  0  0  0  0  0
  -15.3705  -26.9122   25.4384 H   0  0  0  0  0  0  0  0  0  0  0  0
  -14.1077  -27.7834   27.4795 H   0  0  0  0  0  0  0  0  0  0  0  0
   -9.8967  -23.8633   29.9751 H   0  0  0  0  0  0  0  0  0  0  0  0
   -9.4395  -25.3777   29.4071 H   0  0  0  0  0  0  0  0  0  0  0  0
  -10.8637  -26.5780   31.1829 H   0  0  0  0  0  0  0  0  0  0  0  0
  -10.8419  -25.0177   32.0061 H   0  0  0  0  0  0  0  0  0  0  0  0
   -9.3287  -25.7951   31.6251 H   0  0  0  0  0  0  0  0  0  0  0  0
  -13.1696  -24.3324   29.3894 H   0  0  0  0  0  0  0  0  0  0  0  0
  -12.3732  -24.6138   30.8033 H   0  0  0  0  0  0  0  0  0  0  0  0
  -11.1991  -22.4126   28.9326 H   0  0  0  0  0  0  0  0  0  0  0  0
  -12.8942  -22.2416   29.3919 H   0  0  0  0  0  0  0  0  0  0  0  0
  -10.6964  -21.6376   31.0130 H   0  0  0  0  0  0  0  0  0  0  0  0
  -11.8696  -21.2881   34.1336 H   0  0  0  0  0  0  0  0  0  0  0  0
  -10.9134  -20.5649   32.8444 H   0  0  0  0  0  0  0  0  0  0  0  0
   -8.8275  -22.7045   31.7650 H   0  0  0  0  0  0  0  0  0  0  0  0
   -7.5075  -24.3601   33.4481 H   0  0  0  0  0  0  0  0  0  0  0  0
  -10.6627  -22.9187   35.5512 H   0  0  0  0  0  0  0  0  0  0  0  0
  1  2  1  0
  2  3  1  0
  3  4  1  0
  4  5  2  0
  5  6  1  0
  6  7  1  0
  7  8  1  0
  8  9  2  0
  8 10  1  0
 10 11  1  0
 11 12  1  0
 10 13  1  0
 13 14  1  0
 14 15  1  0
 15 16  1  0
 16 17  2  0
 16 18  1  0
 18 19  1  0
 19 20  2  0
 20 21  1  0
 21 22  2  0
 22 23  1  0
  7  3  2  0
 23 19  1  0
  1 24  1  0
  1 25  1  0
  1 26  1  0
  2 27  1  0
  2 28  1  0
  5 29  1  0
  6 30  1  0
 11 31  1  0
 11 32  1  0
 12 33  1  0
 12 34  1  0
 12 35  1  0
 13 36  1  0
 13 37  1  0
 14 38  1  0
 14 39  1  0
 15 40  1  0
 18 41  1  0
 18 42  1  0
 20 43  1  0
 21 44  1  0
 23 45  1  0
M  END
>  <Energy>  (186) 
84.355842887889921

>  <compound_id>  (186) 
8138

>  <target_id>  (186) 
1

>  <reference_id>  (186) 
96

>  <inspiration_ids>  (186) 
[35, 96]

>  <energy_score>  (186) 
51.79397107122898

>  <distance_score>  (186) 
4.072011855196797

>  <path>  (186) 
/opt/xchem-fragalysis-2/maxwin/BulkDock/SCRATCH/511017/C8138-P96/C8138-P96.minimised.mol

>  <scratch_subdir>  (186) 
/opt/xchem-fragalysis-2/maxwin/BulkDock/SCRATCH/511017/C8138-P96

>  <fragmenstein_runtime>  (186) 
12.12859320640564

>  <fragmenstein_outcome>  (186) 
too moved

>  <fragmenstein_mode>  (186) 
expansion

>  <fragmenstein_error>  (186) 


$$$$
C8139-P35
     RDKit          3D

 45 46  0  0  0  0  0  0  0  0999 V2000
   -8.9461  -19.5798   28.1817 C   0  0  0  0  0  0  0  0  0  0  0  0
  -10.0182  -21.3347   28.3873 C   0  0  0  0  0  0  0  0  0  0  0  0
   -9.0028  -22.6649   28.1170 C   0  0  0  0  0  0  0  0  0  0  0  0
  -11.3406  -22.2499   27.9153 N   0  0  0  0  0  0  0  0  0  0  0  0
  -11.8790  -21.7713   29.2376 C   0  0  0  0  0  0  0  0  0  0  0  0
  -11.4246  -21.7726   30.7757 C   0  0  0  0  0  0  0  0  0  0  0  0
  -11.4414  -22.9735   31.7663 N   0  0  0  0  0  0  0  0  0  0  0  0
  -10.9300  -21.9194   32.7097 C   0  0  0  0  0  0  0  0  0  0  0  0
  -12.7020  -23.6412   31.7129 C   0  0  0  0  0  0  0  0  0  0  0  0
  -13.7065  -23.4664   32.3513 O   0  0  0  0  0  0  0  0  0  0  0  0
  -12.6763  -24.8147   30.7478 C   0  0  0  0  0  0  0  0  0  0  0  0
  -11.5409  -25.7684   30.9583 C   0  0  0  0  0  0  0  0  0  0  0  0
  -10.9128  -26.6720   30.1276 C   0  0  0  0  0  0  0  0  0  0  0  0
   -9.9795  -27.3353   30.9390 C   0  0  0  0  0  0  0  0  0  0  0  0
  -10.0401  -26.9331   32.2062 N   0  0  0  0  0  0  0  0  0  0  0  0
  -10.9318  -25.9330   32.1753 N   0  0  0  0  0  0  0  0  0  0  0  0
  -11.5057  -23.7111   27.8035 C   0  0  0  0  0  0  0  0  0  0  0  0
  -10.7634  -24.6068   28.1114 O   0  0  0  0  0  0  0  0  0  0  0  0
  -12.6778  -24.2088   27.1325 C   0  0  0  0  0  0  0  0  0  0  0  0
  -13.0980  -23.9723   25.8398 C   0  0  0  0  0  0  0  0  0  0  0  0
  -14.0577  -24.8781   25.4522 N   0  0  0  0  0  0  0  0  0  0  0  0
  -14.1833  -25.7025   26.4620 C   0  0  0  0  0  0  0  0  0  0  0  0
  -13.3419  -25.3675   27.4765 N   0  0  0  0  0  0  0  0  0  0  0  0
   -8.2558  -18.9639   28.7771 H   0  0  0  0  0  0  0  0  0  0  0  0
   -9.2428  -18.6056   27.7132 H   0  0  0  0  0  0  0  0  0  0  0  0
   -7.8246  -20.0149   27.8767 H   0  0  0  0  0  0  0  0  0  0  0  0
  -10.1961  -21.0729   27.3654 H   0  0  0  0  0  0  0  0  0  0  0  0
   -7.9789  -22.3910   27.8301 H   0  0  0  0  0  0  0  0  0  0  0  0
   -9.3460  -23.2902   27.2920 H   0  0  0  0  0  0  0  0  0  0  0  0
   -9.1244  -23.4968   28.8013 H   0  0  0  0  0  0  0  0  0  0  0  0
  -12.8008  -22.3535   29.3067 H   0  0  0  0  0  0  0  0  0  0  0  0
  -12.2372  -20.7630   29.0353 H   0  0  0  0  0  0  0  0  0  0  0  0
  -12.2515  -21.1761   31.1619 H   0  0  0  0  0  0  0  0  0  0  0  0
  -10.5146  -21.1788   30.7874 H   0  0  0  0  0  0  0  0  0  0  0  0
   -9.9253  -21.5281   32.5423 H   0  0  0  0  0  0  0  0  0  0  0  0
  -10.8157  -22.4860   33.6467 H   0  0  0  0  0  0  0  0  0  0  0  0
  -11.6702  -21.1586   32.9992 H   0  0  0  0  0  0  0  0  0  0  0  0
  -13.6121  -25.3752   30.8712 H   0  0  0  0  0  0  0  0  0  0  0  0
  -12.6968  -24.4137   29.7534 H   0  0  0  0  0  0  0  0  0  0  0  0
  -11.0856  -26.8453   29.0768 H   0  0  0  0  0  0  0  0  0  0  0  0
   -9.2809  -28.1161   30.6681 H   0  0  0  0  0  0  0  0  0  0  0  0
  -11.1714  -25.4661   33.0448 H   0  0  0  0  0  0  0  0  0  0  0  0
  -12.7277  -23.2202   25.1531 H   0  0  0  0  0  0  0  0  0  0  0  0
  -14.8383  -26.5626   26.5025 H   0  0  0  0  0  0  0  0  0  0  0  0
  -13.1601  -25.9253   28.2980 H   0  0  0  0  0  0  0  0  0  0  0  0
  1  2  1  0
  2  3  1  0
  2  4  1  0
  4  5  1  0
  5  6  1  0
  6  7  1  0
  7  8  1  0
  7  9  1  0
  9 10  2  0
  9 11  1  0
 11 12  1  0
 12 13  2  0
 13 14  1  0
 14 15  2  0
 15 16  1  0
  4 17  1  0
 17 18  2  0
 17 19  1  0
 19 20  2  0
 20 21  1  0
 21 22  2  0
 22 23  1  0
 16 12  1  0
 23 19  1  0
  1 24  1  0
  1 25  1  0
  1 26  1  0
  2 27  1  0
  3 28  1  0
  3 29  1  0
  3 30  1  0
  5 31  1  0
  5 32  1  0
  6 33  1  0
  6 34  1  0
  8 35  1  0
  8 36  1  0
  8 37  1  0
 11 38  1  0
 11 39  1  0
 13 40  1  0
 14 41  1  0
 16 42  1  0
 20 43  1  0
 22 44  1  0
 23 45  1  0
M  END
>  <Energy>  (187) 
408.38304711232291

>  <compound_id>  (187) 
8139

>  <target_id>  (187) 
1

>  <reference_id>  (187) 
35

>  <inspiration_ids>  (187) 
[35, 96]

>  <energy_score>  (187) 
340.70578321579006

>  <distance_score>  (187) 
3.7694101585753477

>  <path>  (187) 
/opt/xchem-fragalysis-2/maxwin/BulkDock/SCRATCH/511017/C8139-P35/C8139-P35.minimised.mol

>  <scratch_subdir>  (187) 
/opt/xchem-fragalysis-2/maxwin/BulkDock/SCRATCH/511017/C8139-P35

>  <fragmenstein_runtime>  (187) 
11.803216457366943

>  <fragmenstein_outcome>  (187) 
too moved

>  <fragmenstein_mode>  (187) 
expansion

>  <fragmenstein_error>  (187) 


$$$$
C8139-P96
     RDKit          3D

 45 46  0  0  0  0  0  0  0  0999 V2000
  -11.0517  -23.4601   27.5410 C   0  0  0  0  0  0  0  0  0  0  0  0
  -10.7833  -24.4921   28.6584 C   0  0  0  0  0  0  0  0  0  0  0  0
   -9.3567  -24.5172   29.2233 C   0  0  0  0  0  0  0  0  0  0  0  0
  -11.9758  -24.9442   29.4691 N   0  0  0  0  0  0  0  0  0  0  0  0
  -11.6044  -23.6824   30.3131 C   0  0  0  0  0  0  0  0  0  0  0  0
  -12.8171  -23.1221   31.1905 C   0  0  0  0  0  0  0  0  0  0  0  0
  -12.4266  -21.8441   32.0165 N   0  0  0  0  0  0  0  0  0  0  0  0
  -13.8902  -21.6883   32.0644 C   0  0  0  0  0  0  0  0  0  0  0  0
  -11.5061  -22.1803   33.0261 C   0  0  0  0  0  0  0  0  0  0  0  0
  -11.6850  -22.5137   34.1622 O   0  0  0  0  0  0  0  0  0  0  0  0
  -10.0811  -21.9642   32.5351 C   0  0  0  0  0  0  0  0  0  0  0  0
   -9.2254  -23.0830   32.9972 C   0  0  0  0  0  0  0  0  0  0  0  0
   -8.2549  -23.8287   32.3839 C   0  0  0  0  0  0  0  0  0  0  0  0
   -7.9984  -24.8861   33.2673 C   0  0  0  0  0  0  0  0  0  0  0  0
   -8.7054  -24.7852   34.3938 N   0  0  0  0  0  0  0  0  0  0  0  0
   -9.3350  -23.6052   34.2584 N   0  0  0  0  0  0  0  0  0  0  0  0
  -12.1431  -26.0691   30.3241 C   0  0  0  0  0  0  0  0  0  0  0  0
  -11.3560  -26.8926   30.6907 O   0  0  0  0  0  0  0  0  0  0  0  0
  -13.5222  -26.1952   30.6692 C   0  0  0  0  0  0  0  0  0  0  0  0
  -14.6112  -26.0724   29.8457 C   0  0  0  0  0  0  0  0  0  0  0  0
  -15.7682  -26.0415   30.5756 N   0  0  0  0  0  0  0  0  0  0  0  0
  -15.3976  -26.3628   31.7968 C   0  0  0  0  0  0  0  0  0  0  0  0
  -14.0461  -26.5465   31.8791 N   0  0  0  0  0  0  0  0  0  0  0  0
  -12.0666  -23.5737   27.1461 H   0  0  0  0  0  0  0  0  0  0  0  0
  -10.3525  -23.6140   26.7121 H   0  0  0  0  0  0  0  0  0  0  0  0
  -10.9259  -22.4231   27.8655 H   0  0  0  0  0  0  0  0  0  0  0  0
  -10.7298  -25.4089   28.0431 H   0  0  0  0  0  0  0  0  0  0  0  0
   -8.6637  -24.8760   28.4631 H   0  0  0  0  0  0  0  0  0  0  0  0
   -9.2656  -25.2037   30.0687 H   0  0  0  0  0  0  0  0  0  0  0  0
   -9.0299  -23.5171   29.5177 H   0  0  0  0  0  0  0  0  0  0  0  0
  -11.2938  -22.7792   29.7783 H   0  0  0  0  0  0  0  0  0  0  0  0
  -10.8599  -24.0015   31.0473 H   0  0  0  0  0  0  0  0  0  0  0  0
  -13.0954  -23.9121   31.9002 H   0  0  0  0  0  0  0  0  0  0  0  0
  -13.5815  -22.9553   30.4257 H   0  0  0  0  0  0  0  0  0  0  0  0
  -14.0323  -20.9783   32.8945 H   0  0  0  0  0  0  0  0  0  0  0  0
  -14.5142  -22.5311   32.4001 H   0  0  0  0  0  0  0  0  0  0  0  0
  -14.2301  -21.1154   31.2117 H   0  0  0  0  0  0  0  0  0  0  0  0
   -9.7336  -21.0035   32.9090 H   0  0  0  0  0  0  0  0  0  0  0  0
  -10.0676  -21.8953   31.4496 H   0  0  0  0  0  0  0  0  0  0  0  0
   -7.8311  -23.6750   31.4083 H   0  0  0  0  0  0  0  0  0  0  0  0
   -7.3235  -25.7225   33.1362 H   0  0  0  0  0  0  0  0  0  0  0  0
   -9.9586  -23.2737   34.9993 H   0  0  0  0  0  0  0  0  0  0  0  0
  -14.6031  -25.9204   28.7721 H   0  0  0  0  0  0  0  0  0  0  0  0
  -16.0551  -26.4935   32.6477 H   0  0  0  0  0  0  0  0  0  0  0  0
  -13.5205  -26.8312   32.6939 H   0  0  0  0  0  0  0  0  0  0  0  0
  1  2  1  0
  2  3  1  0
  2  4  1  0
  4  5  1  0
  5  6  1  0
  6  7  1  0
  7  8  1  0
  7  9  1  0
  9 10  2  0
  9 11  1  0
 11 12  1  0
 12 13  2  0
 13 14  1  0
 14 15  2  0
 15 16  1  0
  4 17  1  0
 17 18  2  0
 17 19  1  0
 19 20  2  0
 20 21  1  0
 21 22  2  0
 22 23  1  0
 16 12  1  0
 23 19  1  0
  1 24  1  0
  1 25  1  0
  1 26  1  0
  2 27  1  0
  3 28  1  0
  3 29  1  0
  3 30  1  0
  5 31  1  0
  5 32  1  0
  6 33  1  0
  6 34  1  0
  8 35  1  0
  8 36  1  0
  8 37  1  0
 11 38  1  0
 11 39  1  0
 13 40  1  0
 14 41  1  0
 16 42  1  0
 20 43  1  0
 22 44  1  0
 23 45  1  0
M  END
>  <Energy>  (188) 
164.25841086901443

>  <compound_id>  (188) 
8139

>  <target_id>  (188) 
1

>  <reference_id>  (188) 
96

>  <inspiration_ids>  (188) 
[35, 96]

>  <energy_score>  (188) 
96.58114697248755

>  <distance_score>  (188) 
3.8719061385873204

>  <path>  (188) 
/opt/xchem-fragalysis-2/maxwin/BulkDock/SCRATCH/511017/C8139-P96/C8139-P96.minimised.mol

>  <scratch_subdir>  (188) 
/opt/xchem-fragalysis-2/maxwin/BulkDock/SCRATCH/511017/C8139-P96

>  <fragmenstein_runtime>  (188) 
13.804625749588013

>  <fragmenstein_outcome>  (188) 
too moved

>  <fragmenstein_mode>  (188) 
expansion

>  <fragmenstein_error>  (188) 


$$$$
C8147-P35
     RDKit          3D

 46 47  0  0  0  0  0  0  0  0999 V2000
  -12.0681  -26.9918   30.8981 C   0  0  0  0  0  0  0  0  0  0  0  0
  -10.6802  -27.2739   31.0413 N   0  0  0  0  0  0  0  0  0  0  0  0
  -10.0581  -28.2659   30.3554 C   0  0  0  0  0  0  0  0  0  0  0  0
   -8.8927  -28.4573   31.0385 C   0  0  0  0  0  0  0  0  0  0  0  0
   -8.7400  -27.5286   32.0039 N   0  0  0  0  0  0  0  0  0  0  0  0
   -9.8266  -26.8174   32.0001 C   0  0  0  0  0  0  0  0  0  0  0  0
  -10.1002  -25.8629   33.0691 C   0  0  0  0  0  0  0  0  0  0  0  0
   -9.5670  -24.4915   32.8509 C   0  0  0  0  0  0  0  0  0  0  0  0
  -10.6061  -23.6407   32.2213 C   0  0  0  0  0  0  0  0  0  0  0  0
  -11.0111  -23.8628   31.1573 O   0  0  0  0  0  0  0  0  0  0  0  0
  -11.0375  -22.5887   33.2489 N   0  0  0  0  0  0  0  0  0  0  0  0
  -11.9972  -21.5240   33.1481 C   0  0  0  0  0  0  0  0  0  0  0  0
  -11.8928  -20.6554   34.4019 C   0  0  0  0  0  0  0  0  0  0  0  0
  -10.5258  -20.3260   34.6629 O   0  0  0  0  0  0  0  0  0  0  0  0
  -13.4011  -22.1001   32.8649 C   0  0  0  0  0  0  0  0  0  0  0  0
  -13.4079  -22.9396   31.6768 N   0  0  0  0  0  0  0  0  0  0  0  0
  -14.4128  -24.0192   31.2160 C   0  0  0  0  0  0  0  0  0  0  0  0
  -15.4344  -24.3508   31.6791 O   0  0  0  0  0  0  0  0  0  0  0  0
  -13.9915  -24.6641   29.8584 C   0  0  0  0  0  0  0  0  0  0  0  0
  -12.8036  -24.2333   29.0326 C   0  0  0  0  0  0  0  0  0  0  0  0
  -11.9951  -24.9697   28.1843 C   0  0  0  0  0  0  0  0  0  0  0  0
  -11.0966  -24.0462   27.6416 C   0  0  0  0  0  0  0  0  0  0  0  0
  -11.2792  -22.8193   28.1129 N   0  0  0  0  0  0  0  0  0  0  0  0
  -12.3347  -22.9530   28.9069 N   0  0  0  0  0  0  0  0  0  0  0  0
  -12.2442  -25.9688   31.2043 H   0  0  0  0  0  0  0  0  0  0  0  0
  -12.3687  -27.1797   29.8675 H   0  0  0  0  0  0  0  0  0  0  0  0
  -12.6242  -27.6717   31.5500 H   0  0  0  0  0  0  0  0  0  0  0  0
  -10.5151  -28.7750   29.5246 H   0  0  0  0  0  0  0  0  0  0  0  0
   -8.1180  -29.1882   30.9130 H   0  0  0  0  0  0  0  0  0  0  0  0
  -11.1484  -25.8108   33.2313 H   0  0  0  0  0  0  0  0  0  0  0  0
   -9.6570  -26.2698   33.9855 H   0  0  0  0  0  0  0  0  0  0  0  0
   -9.3569  -24.0830   33.8378 H   0  0  0  0  0  0  0  0  0  0  0  0
   -8.6836  -24.4812   32.2122 H   0  0  0  0  0  0  0  0  0  0  0  0
  -10.5220  -22.7276   34.1134 H   0  0  0  0  0  0  0  0  0  0  0  0
  -11.6623  -20.9554   32.2774 H   0  0  0  0  0  0  0  0  0  0  0  0
  -12.2501  -21.2144   35.2704 H   0  0  0  0  0  0  0  0  0  0  0  0
  -12.4725  -19.7332   34.3166 H   0  0  0  0  0  0  0  0  0  0  0  0
  -10.1465  -19.9020   33.8709 H   0  0  0  0  0  0  0  0  0  0  0  0
  -14.1388  -21.3085   32.7128 H   0  0  0  0  0  0  0  0  0  0  0  0
  -13.7603  -22.7158   33.6835 H   0  0  0  0  0  0  0  0  0  0  0  0
  -12.5857  -22.9720   31.0903 H   0  0  0  0  0  0  0  0  0  0  0  0
  -13.9556  -25.7384   30.0393 H   0  0  0  0  0  0  0  0  0  0  0  0
  -14.8509  -24.5872   29.1946 H   0  0  0  0  0  0  0  0  0  0  0  0
  -12.0663  -26.0218   27.9541 H   0  0  0  0  0  0  0  0  0  0  0  0
  -10.3408  -24.2052   26.8930 H   0  0  0  0  0  0  0  0  0  0  0  0
  -12.6416  -22.1197   29.3869 H   0  0  0  0  0  0  0  0  0  0  0  0
  1  2  1  0
  2  3  1  0
  3  4  2  0
  4  5  1  0
  5  6  2  0
  6  7  1  0
  7  8  1  0
  8  9  1  0
  9 10  2  0
  9 11  1  0
 11 12  1  0
 12 13  1  0
 13 14  1  0
 12 15  1  0
 15 16  1  0
 16 17  1  0
 17 18  2  0
 17 19  1  0
 19 20  1  0
 20 21  2  0
 21 22  1  0
 22 23  2  0
 23 24  1  0
  6  2  1  0
 24 20  1  0
  1 25  1  0
  1 26  1  0
  1 27  1  0
  3 28  1  0
  4 29  1  0
  7 30  1  0
  7 31  1  0
  8 32  1  0
  8 33  1  0
 11 34  1  0
 12 35  1  0
 13 36  1  0
 13 37  1  0
 14 38  1  0
 15 39  1  0
 15 40  1  0
 16 41  1  0
 19 42  1  0
 19 43  1  0
 21 44  1  0
 22 45  1  0
 24 46  1  0
M  END
>  <Energy>  (189) 
77.756905425287073

>  <compound_id>  (189) 
8147

>  <target_id>  (189) 
1

>  <reference_id>  (189) 
35

>  <inspiration_ids>  (189) 
[35, 96]

>  <energy_score>  (189) 
16.729688636838773

>  <distance_score>  (189) 
2.076021491792089

>  <path>  (189) 
/opt/xchem-fragalysis-2/maxwin/BulkDock/SCRATCH/511017/C8147-P35/C8147-P35.minimised.mol

>  <scratch_subdir>  (189) 
/opt/xchem-fragalysis-2/maxwin/BulkDock/SCRATCH/511017/C8147-P35

>  <fragmenstein_runtime>  (189) 
7.500849723815918

>  <fragmenstein_outcome>  (189) 
too moved

>  <fragmenstein_mode>  (189) 
expansion

>  <fragmenstein_error>  (189) 


$$$$
C8147-P96
     RDKit          3D

 46 47  0  0  0  0  0  0  0  0999 V2000
  -11.9203  -27.5581   29.1805 C   0  0  0  0  0  0  0  0  0  0  0  0
  -11.7932  -27.7053   30.5984 N   0  0  0  0  0  0  0  0  0  0  0  0
  -12.1954  -28.8489   31.2331 C   0  0  0  0  0  0  0  0  0  0  0  0
  -11.6676  -28.7628   32.4882 C   0  0  0  0  0  0  0  0  0  0  0  0
  -10.9855  -27.5939   32.6258 N   0  0  0  0  0  0  0  0  0  0  0  0
  -11.0802  -26.9382   31.4918 C   0  0  0  0  0  0  0  0  0  0  0  0
  -10.2837  -25.7225   31.1557 C   0  0  0  0  0  0  0  0  0  0  0  0
   -9.3751  -25.1921   32.2682 C   0  0  0  0  0  0  0  0  0  0  0  0
   -9.4499  -23.6827   32.2656 C   0  0  0  0  0  0  0  0  0  0  0  0
   -8.5317  -23.0038   32.0432 O   0  0  0  0  0  0  0  0  0  0  0  0
  -10.9314  -23.3167   32.4995 N   0  0  0  0  0  0  0  0  0  0  0  0
  -11.6057  -22.0470   32.4138 C   0  0  0  0  0  0  0  0  0  0  0  0
  -11.7623  -21.4001   33.7949 C   0  0  0  0  0  0  0  0  0  0  0  0
  -11.7591  -19.9870   33.6623 O   0  0  0  0  0  0  0  0  0  0  0  0
  -12.9498  -22.2545   31.6782 C   0  0  0  0  0  0  0  0  0  0  0  0
  -12.7743  -22.8495   30.3507 N   0  0  0  0  0  0  0  0  0  0  0  0
  -13.2120  -24.2492   29.7972 C   0  0  0  0  0  0  0  0  0  0  0  0
  -13.8455  -25.1009   30.2994 O   0  0  0  0  0  0  0  0  0  0  0  0
  -12.7798  -24.4220   28.2866 C   0  0  0  0  0  0  0  0  0  0  0  0
  -11.4591  -23.8430   28.0095 C   0  0  0  0  0  0  0  0  0  0  0  0
  -10.1785  -24.2950   28.2122 C   0  0  0  0  0  0  0  0  0  0  0  0
   -9.5433  -23.1228   28.6413 C   0  0  0  0  0  0  0  0  0  0  0  0
  -10.2815  -22.0365   28.3999 N   0  0  0  0  0  0  0  0  0  0  0  0
  -11.2863  -22.5285   27.6623 N   0  0  0  0  0  0  0  0  0  0  0  0
  -12.9639  -27.3362   28.9538 H   0  0  0  0  0  0  0  0  0  0  0  0
  -11.2382  -26.8030   28.8136 H   0  0  0  0  0  0  0  0  0  0  0  0
  -11.6559  -28.5119   28.7142 H   0  0  0  0  0  0  0  0  0  0  0  0
  -12.7723  -29.6205   30.7422 H   0  0  0  0  0  0  0  0  0  0  0  0
  -11.7282  -29.4814   33.2948 H   0  0  0  0  0  0  0  0  0  0  0  0
   -9.6284  -25.9622   30.3197 H   0  0  0  0  0  0  0  0  0  0  0  0
  -10.9707  -24.9752   30.7713 H   0  0  0  0  0  0  0  0  0  0  0  0
   -9.5837  -25.5566   33.2716 H   0  0  0  0  0  0  0  0  0  0  0  0
   -8.3373  -25.4766   32.0644 H   0  0  0  0  0  0  0  0  0  0  0  0
  -11.4791  -24.1625   32.5848 H   0  0  0  0  0  0  0  0  0  0  0  0
  -10.9668  -21.4049   31.7937 H   0  0  0  0  0  0  0  0  0  0  0  0
  -10.9335  -21.6919   34.4424 H   0  0  0  0  0  0  0  0  0  0  0  0
  -12.6927  -21.7100   34.2810 H   0  0  0  0  0  0  0  0  0  0  0  0
  -11.4645  -19.6375   34.5253 H   0  0  0  0  0  0  0  0  0  0  0  0
  -13.6094  -22.9181   32.2478 H   0  0  0  0  0  0  0  0  0  0  0  0
  -13.4529  -21.2935   31.5388 H   0  0  0  0  0  0  0  0  0  0  0  0
  -12.1625  -22.3974   29.6830 H   0  0  0  0  0  0  0  0  0  0  0  0
  -12.7595  -25.4818   28.0473 H   0  0  0  0  0  0  0  0  0  0  0  0
  -13.5467  -24.0341   27.6254 H   0  0  0  0  0  0  0  0  0  0  0  0
   -9.8147  -25.2983   28.3495 H   0  0  0  0  0  0  0  0  0  0  0  0
   -8.5988  -23.0306   29.1547 H   0  0  0  0  0  0  0  0  0  0  0  0
  -11.9267  -21.8747   27.2058 H   0  0  0  0  0  0  0  0  0  0  0  0
  1  2  1  0
  2  3  1  0
  3  4  2  0
  4  5  1  0
  5  6  2  0
  6  7  1  0
  7  8  1  0
  8  9  1  0
  9 10  2  0
  9 11  1  0
 11 12  1  0
 12 13  1  0
 13 14  1  0
 12 15  1  0
 15 16  1  0
 16 17  1  0
 17 18  2  0
 17 19  1  0
 19 20  1  0
 20 21  2  0
 21 22  1  0
 22 23  2  0
 23 24  1  0
  6  2  1  0
 24 20  1  0
  1 25  1  0
  1 26  1  0
  1 27  1  0
  3 28  1  0
  4 29  1  0
  7 30  1  0
  7 31  1  0
  8 32  1  0
  8 33  1  0
 11 34  1  0
 12 35  1  0
 13 36  1  0
 13 37  1  0
 14 38  1  0
 15 39  1  0
 15 40  1  0
 16 41  1  0
 19 42  1  0
 19 43  1  0
 21 44  1  0
 22 45  1  0
 24 46  1  0
M  END
>  <Energy>  (190) 
82.456844202827583

>  <compound_id>  (190) 
8147

>  <target_id>  (190) 
1

>  <reference_id>  (190) 
96

>  <inspiration_ids>  (190) 
[35, 96]

>  <energy_score>  (190) 
21.429627414380803

>  <distance_score>  (190) 
1.9235088827250186

>  <path>  (190) 
/opt/xchem-fragalysis-2/maxwin/BulkDock/SCRATCH/511017/C8147-P96/C8147-P96.minimised.mol

>  <scratch_subdir>  (190) 
/opt/xchem-fragalysis-2/maxwin/BulkDock/SCRATCH/511017/C8147-P96

>  <fragmenstein_runtime>  (190) 
5.156004428863525

>  <fragmenstein_outcome>  (190) 
too moved

>  <fragmenstein_mode>  (190) 
expansion

>  <fragmenstein_error>  (190) 


$$$$
C8148-P35
     RDKit          3D

 45 46  0  0  0  0  0  0  0  0999 V2000
  -12.9227  -22.0004   33.8639 C   0  0  0  0  0  0  0  0  0  0  0  0
  -12.0997  -22.2670   32.6142 C   0  0  0  0  0  0  0  0  0  0  0  0
  -11.1587  -21.0871   32.4410 C   0  0  0  0  0  0  0  0  0  0  0  0
  -13.0965  -22.6741   31.4939 C   0  0  0  0  0  0  0  0  0  0  0  0
  -12.4315  -22.8630   30.2298 N   0  0  0  0  0  0  0  0  0  0  0  0
  -12.0448  -21.8682   29.1698 C   0  0  0  0  0  0  0  0  0  0  0  0
  -12.1237  -20.7190   29.1597 O   0  0  0  0  0  0  0  0  0  0  0  0
  -11.4200  -22.5230   27.9406 C   0  0  0  0  0  0  0  0  0  0  0  0
  -11.9183  -23.8680   27.4283 C   0  0  0  0  0  0  0  0  0  0  0  0
  -11.1252  -24.9409   28.0413 C   0  0  0  0  0  0  0  0  0  0  0  0
  -11.0191  -26.2761   27.7481 C   0  0  0  0  0  0  0  0  0  0  0  0
  -10.0415  -26.7351   28.5841 N   0  0  0  0  0  0  0  0  0  0  0  0
   -9.6113  -25.6767   29.3225 C   0  0  0  0  0  0  0  0  0  0  0  0
  -10.3142  -24.6092   29.0870 N   0  0  0  0  0  0  0  0  0  0  0  0
  -11.2182  -23.3848   32.6695 N   0  0  0  0  0  0  0  0  0  0  0  0
  -10.2333  -23.8165   33.7470 C   0  0  0  0  0  0  0  0  0  0  0  0
  -10.0311  -23.3768   34.8020 O   0  0  0  0  0  0  0  0  0  0  0  0
   -9.4931  -24.9929   33.1634 C   0  0  0  0  0  0  0  0  0  0  0  0
  -10.1899  -26.0416   32.4112 C   0  0  0  0  0  0  0  0  0  0  0  0
  -11.3775  -26.2116   31.7411 C   0  0  0  0  0  0  0  0  0  0  0  0
  -11.3520  -27.5280   31.2821 C   0  0  0  0  0  0  0  0  0  0  0  0
  -10.1821  -28.1183   31.5226 N   0  0  0  0  0  0  0  0  0  0  0  0
   -9.4785  -27.1804   32.1820 N   0  0  0  0  0  0  0  0  0  0  0  0
  -12.3385  -22.0682   34.7859 H   0  0  0  0  0  0  0  0  0  0  0  0
  -13.3916  -21.0100   33.8379 H   0  0  0  0  0  0  0  0  0  0  0  0
  -13.7488  -22.7076   33.8915 H   0  0  0  0  0  0  0  0  0  0  0  0
  -10.7916  -21.0062   31.4202 H   0  0  0  0  0  0  0  0  0  0  0  0
  -10.2658  -21.1752   33.0748 H   0  0  0  0  0  0  0  0  0  0  0  0
  -11.6189  -20.1649   32.7780 H   0  0  0  0  0  0  0  0  0  0  0  0
  -13.8586  -21.9043   31.3618 H   0  0  0  0  0  0  0  0  0  0  0  0
  -13.6122  -23.6124   31.7294 H   0  0  0  0  0  0  0  0  0  0  0  0
  -12.1466  -23.7937   29.9395 H   0  0  0  0  0  0  0  0  0  0  0  0
  -10.3426  -22.5136   28.1244 H   0  0  0  0  0  0  0  0  0  0  0  0
  -11.5709  -21.8214   27.1193 H   0  0  0  0  0  0  0  0  0  0  0  0
  -11.8019  -23.9147   26.3393 H   0  0  0  0  0  0  0  0  0  0  0  0
  -12.9714  -24.0234   27.6638 H   0  0  0  0  0  0  0  0  0  0  0  0
  -11.5054  -26.9132   27.0248 H   0  0  0  0  0  0  0  0  0  0  0  0
   -9.6967  -27.6850   28.6664 H   0  0  0  0  0  0  0  0  0  0  0  0
   -8.8039  -25.7544   30.0312 H   0  0  0  0  0  0  0  0  0  0  0  0
  -11.0722  -23.9393   31.8388 H   0  0  0  0  0  0  0  0  0  0  0  0
   -9.0153  -25.5030   34.0077 H   0  0  0  0  0  0  0  0  0  0  0  0
   -8.7635  -24.5801   32.4577 H   0  0  0  0  0  0  0  0  0  0  0  0
  -12.2090  -25.5363   31.6194 H   0  0  0  0  0  0  0  0  0  0  0  0
  -12.1242  -28.0716   30.7539 H   0  0  0  0  0  0  0  0  0  0  0  0
   -8.5318  -27.4114   32.4934 H   0  0  0  0  0  0  0  0  0  0  0  0
  1  2  1  0
  2  3  1  0
  2  4  1  0
  4  5  1  0
  5  6  1  0
  6  7  2  0
  6  8  1  0
  8  9  1  0
  9 10  1  0
 10 11  2  0
 11 12  1  0
 12 13  1  0
 13 14  2  0
  2 15  1  0
 15 16  1  0
 16 17  2  0
 16 18  1  0
 18 19  1  0
 19 20  2  0
 20 21  1  0
 21 22  2  0
 22 23  1  0
 14 10  1  0
 23 19  1  0
  1 24  1  0
  1 25  1  0
  1 26  1  0
  3 27  1  0
  3 28  1  0
  3 29  1  0
  4 30  1  0
  4 31  1  0
  5 32  1  0
  8 33  1  0
  8 34  1  0
  9 35  1  0
  9 36  1  0
 11 37  1  0
 12 38  1  0
 13 39  1  0
 15 40  1  0
 18 41  1  0
 18 42  1  0
 20 43  1  0
 21 44  1  0
 23 45  1  0
M  END
>  <Energy>  (191) 
59.451501760509551

>  <compound_id>  (191) 
8148

>  <target_id>  (191) 
1

>  <reference_id>  (191) 
35

>  <inspiration_ids>  (191) 
[35, 96]

>  <energy_score>  (191) 
1.6081593350558592

>  <distance_score>  (191) 
3.0562701437637196

>  <path>  (191) 
/opt/xchem-fragalysis-2/maxwin/BulkDock/SCRATCH/511017/C8148-P35/C8148-P35.minimised.mol

>  <scratch_subdir>  (191) 
/opt/xchem-fragalysis-2/maxwin/BulkDock/SCRATCH/511017/C8148-P35

>  <fragmenstein_runtime>  (191) 
6.897853374481201

>  <fragmenstein_outcome>  (191) 
too moved

>  <fragmenstein_mode>  (191) 
expansion

>  <fragmenstein_error>  (191) 


$$$$
C8148-P96
     RDKit          3D

 45 46  0  0  0  0  0  0  0  0999 V2000
   -8.2874  -23.5702   33.9997 C   0  0  0  0  0  0  0  0  0  0  0  0
   -9.0487  -24.2757   32.8983 C   0  0  0  0  0  0  0  0  0  0  0  0
   -8.8738  -25.7681   33.0839 C   0  0  0  0  0  0  0  0  0  0  0  0
   -8.4760  -23.7675   31.5750 C   0  0  0  0  0  0  0  0  0  0  0  0
   -8.8753  -24.4785   30.4002 N   0  0  0  0  0  0  0  0  0  0  0  0
   -9.3006  -23.9587   29.0096 C   0  0  0  0  0  0  0  0  0  0  0  0
   -9.3181  -22.8758   28.5819 O   0  0  0  0  0  0  0  0  0  0  0  0
   -9.6234  -25.1988   28.1912 C   0  0  0  0  0  0  0  0  0  0  0  0
  -10.5346  -24.8664   26.9991 C   0  0  0  0  0  0  0  0  0  0  0  0
  -11.8867  -24.9521   27.5612 C   0  0  0  0  0  0  0  0  0  0  0  0
  -12.6071  -26.0991   27.8016 C   0  0  0  0  0  0  0  0  0  0  0  0
  -13.3723  -25.7872   28.8823 N   0  0  0  0  0  0  0  0  0  0  0  0
  -13.1703  -24.4746   29.1540 C   0  0  0  0  0  0  0  0  0  0  0  0
  -12.3411  -23.9177   28.3169 N   0  0  0  0  0  0  0  0  0  0  0  0
  -10.3959  -23.7778   32.9703 N   0  0  0  0  0  0  0  0  0  0  0  0
  -11.6826  -24.2379   32.2302 C   0  0  0  0  0  0  0  0  0  0  0  0
  -11.8592  -25.1396   31.5092 O   0  0  0  0  0  0  0  0  0  0  0  0
  -12.7339  -23.1560   32.5599 C   0  0  0  0  0  0  0  0  0  0  0  0
  -12.1674  -21.9283   31.9823 C   0  0  0  0  0  0  0  0  0  0  0  0
  -11.9414  -21.5935   30.6749 C   0  0  0  0  0  0  0  0  0  0  0  0
  -11.0064  -20.5728   30.7418 C   0  0  0  0  0  0  0  0  0  0  0  0
  -10.6986  -20.2450   31.9960 N   0  0  0  0  0  0  0  0  0  0  0  0
  -11.5017  -21.0062   32.7364 N   0  0  0  0  0  0  0  0  0  0  0  0
   -8.7302  -23.7478   34.9839 H   0  0  0  0  0  0  0  0  0  0  0  0
   -8.3120  -22.4992   33.8118 H   0  0  0  0  0  0  0  0  0  0  0  0
   -7.2473  -23.8849   33.9952 H   0  0  0  0  0  0  0  0  0  0  0  0
   -9.5983  -26.3447   32.5060 H   0  0  0  0  0  0  0  0  0  0  0  0
   -7.8622  -26.0651   32.7940 H   0  0  0  0  0  0  0  0  0  0  0  0
   -8.9740  -26.0451   34.1343 H   0  0  0  0  0  0  0  0  0  0  0  0
   -8.7947  -22.7379   31.4346 H   0  0  0  0  0  0  0  0  0  0  0  0
   -7.3933  -23.7490   31.6086 H   0  0  0  0  0  0  0  0  0  0  0  0
   -9.0642  -25.4702   30.4624 H   0  0  0  0  0  0  0  0  0  0  0  0
  -10.0944  -25.9497   28.8370 H   0  0  0  0  0  0  0  0  0  0  0  0
   -8.6847  -25.6423   27.8695 H   0  0  0  0  0  0  0  0  0  0  0  0
  -10.4079  -25.6008   26.2029 H   0  0  0  0  0  0  0  0  0  0  0  0
  -10.3507  -23.8761   26.5710 H   0  0  0  0  0  0  0  0  0  0  0  0
  -12.5273  -27.1118   27.4440 H   0  0  0  0  0  0  0  0  0  0  0  0
  -13.9465  -26.4205   29.4190 H   0  0  0  0  0  0  0  0  0  0  0  0
  -13.6486  -23.9919   29.9870 H   0  0  0  0  0  0  0  0  0  0  0  0
  -10.6157  -23.0036   33.5803 H   0  0  0  0  0  0  0  0  0  0  0  0
  -12.8423  -23.0027   33.6306 H   0  0  0  0  0  0  0  0  0  0  0  0
  -13.7050  -23.4210   32.1379 H   0  0  0  0  0  0  0  0  0  0  0  0
  -12.2716  -22.0775   29.7736 H   0  0  0  0  0  0  0  0  0  0  0  0
  -10.5255  -20.0698   29.9132 H   0  0  0  0  0  0  0  0  0  0  0  0
  -11.4658  -20.8990   33.7477 H   0  0  0  0  0  0  0  0  0  0  0  0
  1  2  1  0
  2  3  1  0
  2  4  1  0
  4  5  1  0
  5  6  1  0
  6  7  2  0
  6  8  1  0
  8  9  1  0
  9 10  1  0
 10 11  2  0
 11 12  1  0
 12 13  1  0
 13 14  2  0
  2 15  1  0
 15 16  1  0
 16 17  2  0
 16 18  1  0
 18 19  1  0
 19 20  2  0
 20 21  1  0
 21 22  2  0
 22 23  1  0
 14 10  1  0
 23 19  1  0
  1 24  1  0
  1 25  1  0
  1 26  1  0
  3 27  1  0
  3 28  1  0
  3 29  1  0
  4 30  1  0
  4 31  1  0
  5 32  1  0
  8 33  1  0
  8 34  1  0
  9 35  1  0
  9 36  1  0
 11 37  1  0
 12 38  1  0
 13 39  1  0
 15 40  1  0
 18 41  1  0
 18 42  1  0
 20 43  1  0
 21 44  1  0
 23 45  1  0
M  END
>  <Energy>  (192) 
66.514368131575978

>  <compound_id>  (192) 
8148

>  <target_id>  (192) 
1

>  <reference_id>  (192) 
96

>  <inspiration_ids>  (192) 
[35, 96]

>  <energy_score>  (192) 
8.671025706122748

>  <distance_score>  (192) 
3.433343792020735

>  <path>  (192) 
/opt/xchem-fragalysis-2/maxwin/BulkDock/SCRATCH/511017/C8148-P96/C8148-P96.minimised.mol

>  <scratch_subdir>  (192) 
/opt/xchem-fragalysis-2/maxwin/BulkDock/SCRATCH/511017/C8148-P96

>  <fragmenstein_runtime>  (192) 
10.59302306175232

>  <fragmenstein_outcome>  (192) 
too moved

>  <fragmenstein_mode>  (192) 
expansion

>  <fragmenstein_error>  (192) 


$$$$
C8149-P35
     RDKit          3D

 42 43  0  0  0  0  0  0  0  0999 V2000
  -12.8887  -21.8528   33.6794 C   0  0  0  0  0  0  0  0  0  0  0  0
  -12.1564  -22.2529   32.5572 N   0  0  0  0  0  0  0  0  0  0  0  0
  -13.8127  -22.0831   33.4844 C   0  0  0  0  0  0  0  0  0  0  0  0
  -14.9369  -22.4789   32.2551 C   0  0  0  0  0  0  0  0  0  0  0  0
  -15.9537  -23.5314   32.7597 C   0  0  0  0  0  0  0  0  0  0  0  0
  -15.7699  -21.2190   31.9299 C   0  0  0  0  0  0  0  0  0  0  0  0
  -14.1276  -23.0104   31.1436 N   0  0  0  0  0  0  0  0  0  0  0  0
  -14.1978  -24.2616   30.4385 C   0  0  0  0  0  0  0  0  0  0  0  0
  -14.9828  -25.1608   30.5207 O   0  0  0  0  0  0  0  0  0  0  0  0
  -13.1650  -24.3720   29.4070 C   0  0  0  0  0  0  0  0  0  0  0  0
  -12.7795  -25.5212   28.7344 C   0  0  0  0  0  0  0  0  0  0  0  0
  -11.7936  -25.2735   27.8158 N   0  0  0  0  0  0  0  0  0  0  0  0
  -11.6023  -23.9792   27.8707 C   0  0  0  0  0  0  0  0  0  0  0  0
  -12.3822  -23.3954   28.8270 N   0  0  0  0  0  0  0  0  0  0  0  0
  -10.8308  -21.9079   32.7913 C   0  0  0  0  0  0  0  0  0  0  0  0
  -10.3282  -20.8436   32.4694 O   0  0  0  0  0  0  0  0  0  0  0  0
  -10.0056  -23.0370   33.4463 C   0  0  0  0  0  0  0  0  0  0  0  0
  -10.1151  -24.3633   32.7501 C   0  0  0  0  0  0  0  0  0  0  0  0
  -10.4696  -24.7280   31.4723 C   0  0  0  0  0  0  0  0  0  0  0  0
  -10.4051  -26.1267   31.4282 C   0  0  0  0  0  0  0  0  0  0  0  0
  -10.0435  -26.6402   32.6013 N   0  0  0  0  0  0  0  0  0  0  0  0
   -9.7833  -25.5532   33.3498 N   0  0  0  0  0  0  0  0  0  0  0  0
  -12.2674  -22.5791   34.3733 H   0  0  0  0  0  0  0  0  0  0  0  0
  -12.6163  -20.7067   33.4055 H   0  0  0  0  0  0  0  0  0  0  0  0
  -12.4467  -21.2770   34.6369 H   0  0  0  0  0  0  0  0  0  0  0  0
  -14.4245  -21.1089   33.9363 H   0  0  0  0  0  0  0  0  0  0  0  0
  -14.0846  -23.1126   33.9727 H   0  0  0  0  0  0  0  0  0  0  0  0
  -15.4681  -24.4904   32.9438 H   0  0  0  0  0  0  0  0  0  0  0  0
  -16.7403  -23.7294   32.0239 H   0  0  0  0  0  0  0  0  0  0  0  0
  -16.4512  -23.2001   33.6764 H   0  0  0  0  0  0  0  0  0  0  0  0
  -15.4080  -20.7218   31.0441 H   0  0  0  0  0  0  0  0  0  0  0  0
  -16.8243  -21.4539   31.7418 H   0  0  0  0  0  0  0  0  0  0  0  0
  -15.8019  -20.4854   32.7395 H   0  0  0  0  0  0  0  0  0  0  0  0
  -13.2807  -22.5300   30.8784 H   0  0  0  0  0  0  0  0  0  0  0  0
  -13.1712  -26.5201   28.8845 H   0  0  0  0  0  0  0  0  0  0  0  0
  -10.9221  -23.4111   27.2534 H   0  0  0  0  0  0  0  0  0  0  0  0
  -12.3742  -22.4095   29.0396 H   0  0  0  0  0  0  0  0  0  0  0  0
  -10.2905  -23.1307   34.4991 H   0  0  0  0  0  0  0  0  0  0  0  0
   -8.9665  -22.7038   33.4526 H   0  0  0  0  0  0  0  0  0  0  0  0
  -10.7468  -24.0697   30.6749 H   0  0  0  0  0  0  0  0  0  0  0  0
  -10.6141  -26.7878   30.5970 H   0  0  0  0  0  0  0  0  0  0  0  0
   -9.3931  -25.7033   34.2734 H   0  0  0  0  0  0  0  0  0  0  0  0
  1  2  1  0
  2  3  1  0
  3  4  1  0
  4  5  1  0
  4  6  1  0
  4  7  1  0
  7  8  1  0
  8  9  2  0
  8 10  1  0
 10 11  2  0
 11 12  1  0
 12 13  2  0
 13 14  1  0
  2 15  1  0
 15 16  2  0
 15 17  1  0
 17 18  1  0
 18 19  2  0
 19 20  1  0
 20 21  2  0
 21 22  1  0
 14 10  1  0
 22 18  1  0
  1 23  1  0
  1 24  1  0
  1 25  1  0
  3 26  1  0
  3 27  1  0
  5 28  1  0
  5 29  1  0
  5 30  1  0
  6 31  1  0
  6 32  1  0
  6 33  1  0
  7 34  1  0
 11 35  1  0
 13 36  1  0
 14 37  1  0
 17 38  1  0
 17 39  1  0
 19 40  1  0
 20 41  1  0
 22 42  1  0
M  END
>  <Energy>  (193) 
597.20096449745438

>  <compound_id>  (193) 
8149

>  <target_id>  (193) 
1

>  <reference_id>  (193) 
35

>  <inspiration_ids>  (193) 
[35, 96]

>  <energy_score>  (193) 
556.6703437719636

>  <distance_score>  (193) 
3.2160800001251384

>  <path>  (193) 
/opt/xchem-fragalysis-2/maxwin/BulkDock/SCRATCH/511017/C8149-P35/C8149-P35.minimised.mol

>  <scratch_subdir>  (193) 
/opt/xchem-fragalysis-2/maxwin/BulkDock/SCRATCH/511017/C8149-P35

>  <fragmenstein_runtime>  (193) 
12.689363479614258

>  <fragmenstein_outcome>  (193) 
too moved

>  <fragmenstein_mode>  (193) 
expansion

>  <fragmenstein_error>  (193) 


$$$$
C8149-P96
     RDKit          3D

 42 43  0  0  0  0  0  0  0  0999 V2000
  -14.8916  -27.4661   32.3628 C   0  0  0  0  0  0  0  0  0  0  0  0
  -14.5794  -25.9958   31.2072 N   0  0  0  0  0  0  0  0  0  0  0  0
  -14.3005  -27.2997   31.6206 C   0  0  0  0  0  0  0  0  0  0  0  0
  -12.9969  -28.2484   30.8158 C   0  0  0  0  0  0  0  0  0  0  0  0
  -12.0974  -28.8609   31.9076 C   0  0  0  0  0  0  0  0  0  0  0  0
  -13.5764  -29.4153   29.9899 C   0  0  0  0  0  0  0  0  0  0  0  0
  -12.2366  -27.3047   29.9827 N   0  0  0  0  0  0  0  0  0  0  0  0
  -12.5309  -26.7335   28.7078 C   0  0  0  0  0  0  0  0  0  0  0  0
  -13.4331  -26.9367   27.9521 O   0  0  0  0  0  0  0  0  0  0  0  0
  -11.6012  -25.6671   28.3604 C   0  0  0  0  0  0  0  0  0  0  0  0
  -10.3921  -25.2194   28.8590 C   0  0  0  0  0  0  0  0  0  0  0  0
   -9.9921  -24.0588   28.2450 N   0  0  0  0  0  0  0  0  0  0  0  0
  -10.9291  -23.7915   27.3670 C   0  0  0  0  0  0  0  0  0  0  0  0
  -11.8915  -24.7545   27.3648 N   0  0  0  0  0  0  0  0  0  0  0  0
  -15.4585  -25.0024   31.5685 C   0  0  0  0  0  0  0  0  0  0  0  0
  -16.5753  -24.8652   31.0838 O   0  0  0  0  0  0  0  0  0  0  0  0
  -14.9074  -23.9802   32.5578 C   0  0  0  0  0  0  0  0  0  0  0  0
  -13.5500  -23.4341   32.1800 C   0  0  0  0  0  0  0  0  0  0  0  0
  -12.8335  -23.4657   30.9984 C   0  0  0  0  0  0  0  0  0  0  0  0
  -11.6233  -22.8100   31.2644 C   0  0  0  0  0  0  0  0  0  0  0  0
  -11.5671  -22.3688   32.5181 N   0  0  0  0  0  0  0  0  0  0  0  0
  -12.7665  -22.6866   33.0318 N   0  0  0  0  0  0  0  0  0  0  0  0
  -15.7394  -28.2784   32.1008 H   0  0  0  0  0  0  0  0  0  0  0  0
  -14.2934  -27.6281   33.3916 H   0  0  0  0  0  0  0  0  0  0  0  0
  -15.6992  -26.8991   32.9841 H   0  0  0  0  0  0  0  0  0  0  0  0
  -14.7674  -27.5233   30.5508 H   0  0  0  0  0  0  0  0  0  0  0  0
  -13.2894  -26.7503   31.9759 H   0  0  0  0  0  0  0  0  0  0  0  0
  -12.6850  -29.4577   32.6132 H   0  0  0  0  0  0  0  0  0  0  0  0
  -11.5680  -28.0884   32.4740 H   0  0  0  0  0  0  0  0  0  0  0  0
  -11.3422  -29.5202   31.4673 H   0  0  0  0  0  0  0  0  0  0  0  0
  -14.2438  -29.0736   29.1925 H   0  0  0  0  0  0  0  0  0  0  0  0
  -14.1464  -30.0987   30.6286 H   0  0  0  0  0  0  0  0  0  0  0  0
  -12.7739  -29.9867   29.5092 H   0  0  0  0  0  0  0  0  0  0  0  0
  -11.4347  -26.8337   30.3767 H   0  0  0  0  0  0  0  0  0  0  0  0
   -9.7913  -25.6327   29.6577 H   0  0  0  0  0  0  0  0  0  0  0  0
  -10.9698  -22.9294   26.7133 H   0  0  0  0  0  0  0  0  0  0  0  0
  -12.7320  -24.7697   26.8016 H   0  0  0  0  0  0  0  0  0  0  0  0
  -14.9162  -24.4728   33.5257 H   0  0  0  0  0  0  0  0  0  0  0  0
  -15.6142  -23.1444   32.6174 H   0  0  0  0  0  0  0  0  0  0  0  0
  -13.1409  -23.9169   30.0675 H   0  0  0  0  0  0  0  0  0  0  0  0
  -10.7833  -22.6383   30.6019 H   0  0  0  0  0  0  0  0  0  0  0  0
  -12.9562  -22.3874   33.9859 H   0  0  0  0  0  0  0  0  0  0  0  0
  1  2  1  0
  2  3  1  0
  3  4  1  0
  4  5  1  0
  4  6  1  0
  4  7  1  0
  7  8  1  0
  8  9  2  0
  8 10  1  0
 10 11  2  0
 11 12  1  0
 12 13  2  0
 13 14  1  0
  2 15  1  0
 15 16  2  0
 15 17  1  0
 17 18  1  0
 18 19  2  0
 19 20  1  0
 20 21  2  0
 21 22  1  0
 14 10  1  0
 22 18  1  0
  1 23  1  0
  1 24  1  0
  1 25  1  0
  3 26  1  0
  3 27  1  0
  5 28  1  0
  5 29  1  0
  5 30  1  0
  6 31  1  0
  6 32  1  0
  6 33  1  0
  7 34  1  0
 11 35  1  0
 13 36  1  0
 14 37  1  0
 17 38  1  0
 17 39  1  0
 19 40  1  0
 20 41  1  0
 22 42  1  0
M  END
>  <Energy>  (194) 
584.57443176437175

>  <compound_id>  (194) 
8149

>  <target_id>  (194) 
1

>  <reference_id>  (194) 
96

>  <inspiration_ids>  (194) 
[35, 96]

>  <energy_score>  (194) 
544.0438110388752

>  <distance_score>  (194) 
4.170147221886452

>  <path>  (194) 
/opt/xchem-fragalysis-2/maxwin/BulkDock/SCRATCH/511017/C8149-P96/C8149-P96.minimised.mol

>  <scratch_subdir>  (194) 
/opt/xchem-fragalysis-2/maxwin/BulkDock/SCRATCH/511017/C8149-P96

>  <fragmenstein_runtime>  (194) 
9.397917747497559

>  <fragmenstein_outcome>  (194) 
too moved

>  <fragmenstein_mode>  (194) 
expansion

>  <fragmenstein_error>  (194) 


$$$$
C8150-P35
     RDKit          3D

 39 41  0  0  0  0  0  0  0  0999 V2000
   -8.6829  -26.1465   34.0869 O   0  0  0  0  0  0  0  0  0  0  0  0
   -9.7264  -25.8509   33.6687 C   0  0  0  0  0  0  0  0  0  0  0  0
  -10.5450  -24.5548   33.8477 N   0  0  0  0  0  0  0  0  0  0  0  0
  -10.2042  -23.3111   34.5038 C   0  0  0  0  0  0  0  0  0  0  0  0
  -10.2967  -22.2002   33.4579 C   0  0  0  0  0  0  0  0  0  0  0  0
  -10.5998  -22.7531   32.1494 N   0  0  0  0  0  0  0  0  0  0  0  0
  -11.4975  -22.4133   31.1794 C   0  0  0  0  0  0  0  0  0  0  0  0
  -11.4183  -23.4844   30.3182 C   0  0  0  0  0  0  0  0  0  0  0  0
  -11.7773  -23.6947   28.8770 C   0  0  0  0  0  0  0  0  0  0  0  0
  -11.8342  -22.8260   27.8369 C   0  0  0  0  0  0  0  0  0  0  0  0
  -11.9635  -23.6564   26.7029 C   0  0  0  0  0  0  0  0  0  0  0  0
  -11.9999  -24.9547   27.0126 N   0  0  0  0  0  0  0  0  0  0  0  0
  -11.8699  -24.9363   28.3492 N   0  0  0  0  0  0  0  0  0  0  0  0
  -10.5945  -24.4311   30.8058 N   0  0  0  0  0  0  0  0  0  0  0  0
   -9.9253  -23.8660   31.7718 N   0  0  0  0  0  0  0  0  0  0  0  0
  -10.5204  -26.7216   32.6914 C   0  0  0  0  0  0  0  0  0  0  0  0
  -11.2627  -27.7172   33.4003 O   0  0  0  0  0  0  0  0  0  0  0  0
   -9.5367  -27.2117   31.6296 C   0  0  0  0  0  0  0  0  0  0  0  0
  -10.2631  -27.6476   30.4247 C   0  0  0  0  0  0  0  0  0  0  0  0
   -9.9162  -27.4657   29.1132 C   0  0  0  0  0  0  0  0  0  0  0  0
  -10.9387  -28.0027   28.4021 N   0  0  0  0  0  0  0  0  0  0  0  0
  -11.8892  -28.4117   29.2845 C   0  0  0  0  0  0  0  0  0  0  0  0
  -11.5111  -28.2076   30.5160 N   0  0  0  0  0  0  0  0  0  0  0  0
  -11.4569  -24.6654   33.4096 H   0  0  0  0  0  0  0  0  0  0  0  0
   -9.2107  -23.3829   34.9366 H   0  0  0  0  0  0  0  0  0  0  0  0
  -10.9125  -23.1113   35.3134 H   0  0  0  0  0  0  0  0  0  0  0  0
   -9.3652  -21.6319   33.3909 H   0  0  0  0  0  0  0  0  0  0  0  0
  -11.1013  -21.5004   33.7090 H   0  0  0  0  0  0  0  0  0  0  0  0
  -12.0282  -21.4814   31.1663 H   0  0  0  0  0  0  0  0  0  0  0  0
  -11.7048  -21.7582   27.8645 H   0  0  0  0  0  0  0  0  0  0  0  0
  -12.0322  -23.3588   25.6642 H   0  0  0  0  0  0  0  0  0  0  0  0
  -11.8515  -25.8013   28.8756 H   0  0  0  0  0  0  0  0  0  0  0  0
  -11.2825  -26.1398   32.1770 H   0  0  0  0  0  0  0  0  0  0  0  0
  -10.6508  -27.9980   34.1100 H   0  0  0  0  0  0  0  0  0  0  0  0
   -8.8745  -28.0094   31.9619 H   0  0  0  0  0  0  0  0  0  0  0  0
   -8.8780  -26.3850   31.3419 H   0  0  0  0  0  0  0  0  0  0  0  0
   -9.0795  -26.9982   28.6255 H   0  0  0  0  0  0  0  0  0  0  0  0
  -11.0041  -28.0380   27.3948 H   0  0  0  0  0  0  0  0  0  0  0  0
  -12.8251  -28.8542   28.9722 H   0  0  0  0  0  0  0  0  0  0  0  0
  1  2  2  0
  2  3  1  0
  3  4  1  0
  4  5  1  0
  5  6  1  0
  6  7  1  0
  7  8  2  0
  8  9  1  0
  9 10  2  0
 10 11  1  0
 11 12  2  0
 12 13  1  0
  8 14  1  0
 14 15  2  0
  2 16  1  0
 16 17  1  0
 16 18  1  0
 18 19  1  0
 19 20  2  0
 20 21  1  0
 21 22  1  0
 22 23  2  0
 15  6  1  0
 23 19  1  0
 13  9  1  0
  3 24  1  0
  4 25  1  0
  4 26  1  0
  5 27  1  0
  5 28  1  0
  7 29  1  0
 10 30  1  0
 11 31  1  0
 13 32  1  0
 16 33  1  0
 17 34  1  0
 18 35  1  0
 18 36  1  0
 20 37  1  0
 21 38  1  0
 22 39  1  0
M  END
>  <Energy>  (195) 
95.214289295648058

>  <compound_id>  (195) 
8150

>  <target_id>  (195) 
1

>  <reference_id>  (195) 
35

>  <inspiration_ids>  (195) 
[35, 96]

>  <energy_score>  (195) 
40.78897130019766

>  <distance_score>  (195) 
2.677173335993625

>  <path>  (195) 
/opt/xchem-fragalysis-2/maxwin/BulkDock/SCRATCH/511017/C8150-P35/C8150-P35.minimised.mol

>  <scratch_subdir>  (195) 
/opt/xchem-fragalysis-2/maxwin/BulkDock/SCRATCH/511017/C8150-P35

>  <fragmenstein_runtime>  (195) 
3.08768630027771

>  <fragmenstein_outcome>  (195) 
too moved

>  <fragmenstein_mode>  (195) 
expansion

>  <fragmenstein_error>  (195) 


$$$$
C8150-P96
     RDKit          3D

 39 41  0  0  0  0  0  0  0  0999 V2000
  -15.4773  -24.0274   33.3158 O   0  0  0  0  0  0  0  0  0  0  0  0
  -14.5953  -24.2021   32.5651 C   0  0  0  0  0  0  0  0  0  0  0  0
  -13.1984  -23.5258   32.4777 N   0  0  0  0  0  0  0  0  0  0  0  0
  -12.6297  -22.4162   33.2454 C   0  0  0  0  0  0  0  0  0  0  0  0
  -11.1445  -22.5115   33.6589 C   0  0  0  0  0  0  0  0  0  0  0  0
  -10.2656  -22.7878   32.5565 N   0  0  0  0  0  0  0  0  0  0  0  0
  -10.4903  -22.4022   31.2725 C   0  0  0  0  0  0  0  0  0  0  0  0
   -9.8885  -23.4002   30.5574 C   0  0  0  0  0  0  0  0  0  0  0  0
  -10.2387  -23.6992   29.1037 C   0  0  0  0  0  0  0  0  0  0  0  0
   -9.9156  -24.8209   28.3895 C   0  0  0  0  0  0  0  0  0  0  0  0
  -10.6694  -24.7096   27.2096 C   0  0  0  0  0  0  0  0  0  0  0  0
  -11.3459  -23.5634   27.1420 N   0  0  0  0  0  0  0  0  0  0  0  0
  -11.0298  -22.9418   28.2901 N   0  0  0  0  0  0  0  0  0  0  0  0
   -9.0819  -24.1337   31.3783 N   0  0  0  0  0  0  0  0  0  0  0  0
   -9.3233  -23.7483   32.6285 N   0  0  0  0  0  0  0  0  0  0  0  0
  -14.7794  -25.1728   31.3640 C   0  0  0  0  0  0  0  0  0  0  0  0
  -16.1827  -25.0918   30.9875 O   0  0  0  0  0  0  0  0  0  0  0  0
  -14.4951  -26.6388   31.6678 C   0  0  0  0  0  0  0  0  0  0  0  0
  -13.0541  -26.9851   31.7154 C   0  0  0  0  0  0  0  0  0  0  0  0
  -12.4767  -28.1066   32.2698 C   0  0  0  0  0  0  0  0  0  0  0  0
  -11.1527  -27.8209   32.3116 N   0  0  0  0  0  0  0  0  0  0  0  0
  -10.9680  -26.6415   31.6413 C   0  0  0  0  0  0  0  0  0  0  0  0
  -12.1022  -26.1100   31.2672 N   0  0  0  0  0  0  0  0  0  0  0  0
  -12.6434  -23.9804   31.7465 H   0  0  0  0  0  0  0  0  0  0  0  0
  -13.2496  -22.2700   34.1357 H   0  0  0  0  0  0  0  0  0  0  0  0
  -12.7891  -21.5232   32.6296 H   0  0  0  0  0  0  0  0  0  0  0  0
  -10.9908  -23.2646   34.4212 H   0  0  0  0  0  0  0  0  0  0  0  0
  -10.8444  -21.5486   34.0753 H   0  0  0  0  0  0  0  0  0  0  0  0
  -11.1820  -21.6198   30.9984 H   0  0  0  0  0  0  0  0  0  0  0  0
   -9.2898  -25.6325   28.7151 H   0  0  0  0  0  0  0  0  0  0  0  0
  -10.7537  -25.4116   26.3912 H   0  0  0  0  0  0  0  0  0  0  0  0
  -11.4016  -22.0108   28.4475 H   0  0  0  0  0  0  0  0  0  0  0  0
  -14.2001  -24.8197   30.5060 H   0  0  0  0  0  0  0  0  0  0  0  0
  -16.6575  -24.8938   31.8269 H   0  0  0  0  0  0  0  0  0  0  0  0
  -14.9659  -26.9103   32.6217 H   0  0  0  0  0  0  0  0  0  0  0  0
  -14.9751  -27.2680   30.9071 H   0  0  0  0  0  0  0  0  0  0  0  0
  -12.8966  -28.9939   32.7222 H   0  0  0  0  0  0  0  0  0  0  0  0
  -10.4351  -28.3744   32.7670 H   0  0  0  0  0  0  0  0  0  0  0  0
   -9.9862  -26.2207   31.5019 H   0  0  0  0  0  0  0  0  0  0  0  0
  1  2  2  0
  2  3  1  0
  3  4  1  0
  4  5  1  0
  5  6  1  0
  6  7  1  0
  7  8  2  0
  8  9  1  0
  9 10  2  0
 10 11  1  0
 11 12  2  0
 12 13  1  0
  8 14  1  0
 14 15  2  0
  2 16  1  0
 16 17  1  0
 16 18  1  0
 18 19  1  0
 19 20  2  0
 20 21  1  0
 21 22  1  0
 22 23  2  0
 15  6  1  0
 23 19  1  0
 13  9  1  0
  3 24  1  0
  4 25  1  0
  4 26  1  0
  5 27  1  0
  5 28  1  0
  7 29  1  0
 10 30  1  0
 11 31  1  0
 13 32  1  0
 16 33  1  0
 17 34  1  0
 18 35  1  0
 18 36  1  0
 20 37  1  0
 21 38  1  0
 22 39  1  0
M  END
>  <Energy>  (196) 
48.23339363512148

>  <compound_id>  (196) 
8150

>  <target_id>  (196) 
1

>  <reference_id>  (196) 
96

>  <inspiration_ids>  (196) 
[35, 96]

>  <energy_score>  (196) 
-6.191924360327221

>  <distance_score>  (196) 
1.8020501029132765

>  <path>  (196) 
/opt/xchem-fragalysis-2/maxwin/BulkDock/SCRATCH/511017/C8150-P96/C8150-P96.minimised.mol

>  <scratch_subdir>  (196) 
/opt/xchem-fragalysis-2/maxwin/BulkDock/SCRATCH/511017/C8150-P96

>  <fragmenstein_runtime>  (196) 
5.56209397315979

>  <fragmenstein_outcome>  (196) 
too moved

>  <fragmenstein_mode>  (196) 
expansion

>  <fragmenstein_error>  (196) 


$$$$
C8151-P35
     RDKit          3D

 40 41  0  0  0  0  0  0  0  0999 V2000
  -11.0876  -23.9517   27.2085 C   0  0  0  0  0  0  0  0  0  0  0  0
  -12.0763  -24.0256   28.2462 N   0  0  0  0  0  0  0  0  0  0  0  0
  -13.0407  -24.9718   28.2995 C   0  0  0  0  0  0  0  0  0  0  0  0
  -13.8127  -24.7922   29.3386 N   0  0  0  0  0  0  0  0  0  0  0  0
  -13.3360  -23.6853   30.0235 C   0  0  0  0  0  0  0  0  0  0  0  0
  -13.9703  -23.2578   31.3223 C   0  0  0  0  0  0  0  0  0  0  0  0
  -14.8661  -23.8714   31.7457 O   0  0  0  0  0  0  0  0  0  0  0  0
  -13.1986  -22.0667   31.9290 N   0  0  0  0  0  0  0  0  0  0  0  0
  -13.3083  -21.4340   33.2437 C   0  0  0  0  0  0  0  0  0  0  0  0
  -12.0104  -20.6690   33.5763 C   0  0  0  0  0  0  0  0  0  0  0  0
  -12.0889  -19.7417   34.7848 C   0  0  0  0  0  0  0  0  0  0  0  0
  -11.0151  -18.7996   34.7986 O   0  0  0  0  0  0  0  0  0  0  0  0
  -10.9722  -21.6334   33.6780 N   0  0  0  0  0  0  0  0  0  0  0  0
  -10.6637  -22.6519   34.7815 C   0  0  0  0  0  0  0  0  0  0  0  0
  -11.1625  -22.8136   35.8180 O   0  0  0  0  0  0  0  0  0  0  0  0
   -9.5905  -23.5174   34.1848 C   0  0  0  0  0  0  0  0  0  0  0  0
   -9.9948  -24.3911   33.0390 C   0  0  0  0  0  0  0  0  0  0  0  0
  -11.1759  -24.5231   32.3649 C   0  0  0  0  0  0  0  0  0  0  0  0
  -10.9919  -25.5353   31.4203 C   0  0  0  0  0  0  0  0  0  0  0  0
   -9.7399  -25.9745   31.4180 N   0  0  0  0  0  0  0  0  0  0  0  0
   -9.1976  -25.3655   32.4836 N   0  0  0  0  0  0  0  0  0  0  0  0
  -12.2332  -23.1936   29.3243 C   0  0  0  0  0  0  0  0  0  0  0  0
  -10.1833  -23.5303   27.6454 H   0  0  0  0  0  0  0  0  0  0  0  0
  -10.8912  -24.9571   26.8336 H   0  0  0  0  0  0  0  0  0  0  0  0
  -11.4849  -23.3200   26.4130 H   0  0  0  0  0  0  0  0  0  0  0  0
  -13.1496  -25.7622   27.5680 H   0  0  0  0  0  0  0  0  0  0  0  0
  -12.4254  -21.8271   31.3302 H   0  0  0  0  0  0  0  0  0  0  0  0
  -14.1997  -20.8021   33.2392 H   0  0  0  0  0  0  0  0  0  0  0  0
  -13.4864  -22.2358   33.9584 H   0  0  0  0  0  0  0  0  0  0  0  0
  -11.6663  -20.0984   32.7310 H   0  0  0  0  0  0  0  0  0  0  0  0
  -13.0228  -19.1722   34.7922 H   0  0  0  0  0  0  0  0  0  0  0  0
  -11.9994  -20.3103   35.7057 H   0  0  0  0  0  0  0  0  0  0  0  0
  -11.1997  -18.1141   34.1226 H   0  0  0  0  0  0  0  0  0  0  0  0
  -10.3951  -21.8267   32.8689 H   0  0  0  0  0  0  0  0  0  0  0  0
   -8.8278  -22.8151   33.8361 H   0  0  0  0  0  0  0  0  0  0  0  0
   -9.2041  -24.1243   34.9936 H   0  0  0  0  0  0  0  0  0  0  0  0
  -12.0930  -24.0437   32.6326 H   0  0  0  0  0  0  0  0  0  0  0  0
  -11.7164  -25.9815   30.7526 H   0  0  0  0  0  0  0  0  0  0  0  0
   -8.2737  -25.6872   32.7535 H   0  0  0  0  0  0  0  0  0  0  0  0
  -11.5648  -22.3630   29.4889 H   0  0  0  0  0  0  0  0  0  0  0  0
  1  2  1  0
  2  3  1  0
  3  4  2  0
  4  5  1  0
  5  6  1  0
  6  7  2  0
  6  8  1  0
  8  9  1  0
  9 10  1  0
 10 11  1  0
 11 12  1  0
 10 13  1  0
 13 14  1  0
 14 15  2  0
 14 16  1  0
 16 17  1  0
 17 18  2  0
 18 19  1  0
 19 20  2  0
 20 21  1  0
  5 22  2  0
 22  2  1  0
 21 17  1  0
  1 23  1  0
  1 24  1  0
  1 25  1  0
  3 26  1  0
  8 27  1  0
  9 28  1  0
  9 29  1  0
 10 30  1  0
 11 31  1  0
 11 32  1  0
 12 33  1  0
 13 34  1  0
 16 35  1  0
 16 36  1  0
 18 37  1  0
 19 38  1  0
 21 39  1  0
 22 40  1  0
M  END
>  <Energy>  (197) 
108.67054848821245

>  <compound_id>  (197) 
8151

>  <target_id>  (197) 
1

>  <reference_id>  (197) 
35

>  <inspiration_ids>  (197) 
[35, 96]

>  <energy_score>  (197) 
29.24284438419909

>  <distance_score>  (197) 
2.0913387771258534

>  <path>  (197) 
/opt/xchem-fragalysis-2/maxwin/BulkDock/SCRATCH/511017/C8151-P35/C8151-P35.minimised.mol

>  <scratch_subdir>  (197) 
/opt/xchem-fragalysis-2/maxwin/BulkDock/SCRATCH/511017/C8151-P35

>  <fragmenstein_runtime>  (197) 
8.797053813934326

>  <fragmenstein_outcome>  (197) 
too moved

>  <fragmenstein_mode>  (197) 
expansion

>  <fragmenstein_error>  (197) 


$$$$
C8151-P96
     RDKit          3D

 40 41  0  0  0  0  0  0  0  0999 V2000
  -10.8020  -24.5666   26.7056 C   0  0  0  0  0  0  0  0  0  0  0  0
  -11.3557  -23.9519   27.8800 N   0  0  0  0  0  0  0  0  0  0  0  0
  -12.4651  -24.3967   28.5287 C   0  0  0  0  0  0  0  0  0  0  0  0
  -12.8015  -23.5953   29.5104 N   0  0  0  0  0  0  0  0  0  0  0  0
  -11.8710  -22.5616   29.4809 C   0  0  0  0  0  0  0  0  0  0  0  0
  -11.9810  -21.3995   30.3838 C   0  0  0  0  0  0  0  0  0  0  0  0
  -11.1921  -20.5403   30.3944 O   0  0  0  0  0  0  0  0  0  0  0  0
  -13.3081  -21.5516   31.1644 N   0  0  0  0  0  0  0  0  0  0  0  0
  -13.9917  -20.6263   32.0556 C   0  0  0  0  0  0  0  0  0  0  0  0
  -14.3684  -21.2234   33.3977 C   0  0  0  0  0  0  0  0  0  0  0  0
  -14.8642  -20.1434   34.3596 C   0  0  0  0  0  0  0  0  0  0  0  0
  -15.9789  -19.4424   33.8164 O   0  0  0  0  0  0  0  0  0  0  0  0
  -13.1752  -21.8775   33.8525 N   0  0  0  0  0  0  0  0  0  0  0  0
  -11.6997  -21.3956   33.8523 C   0  0  0  0  0  0  0  0  0  0  0  0
  -11.2421  -20.3661   33.5544 O   0  0  0  0  0  0  0  0  0  0  0  0
  -10.8711  -22.6063   34.2368 C   0  0  0  0  0  0  0  0  0  0  0  0
  -10.3715  -23.3495   33.0577 C   0  0  0  0  0  0  0  0  0  0  0  0
  -11.0430  -24.0622   32.0925 C   0  0  0  0  0  0  0  0  0  0  0  0
  -10.0441  -24.6878   31.3396 C   0  0  0  0  0  0  0  0  0  0  0  0
   -8.8266  -24.3906   31.7820 N   0  0  0  0  0  0  0  0  0  0  0  0
   -9.0431  -23.5380   32.7964 N   0  0  0  0  0  0  0  0  0  0  0  0
  -10.9267  -22.8194   28.5041 C   0  0  0  0  0  0  0  0  0  0  0  0
  -10.3380  -23.7996   26.0829 H   0  0  0  0  0  0  0  0  0  0  0  0
  -10.0781  -25.3149   27.0333 H   0  0  0  0  0  0  0  0  0  0  0  0
  -11.6055  -25.0541   26.1496 H   0  0  0  0  0  0  0  0  0  0  0  0
  -12.9975  -25.2934   28.2388 H   0  0  0  0  0  0  0  0  0  0  0  0
  -13.7094  -22.4667   30.9766 H   0  0  0  0  0  0  0  0  0  0  0  0
  -13.2864  -19.8365   32.2783 H   0  0  0  0  0  0  0  0  0  0  0  0
  -14.8542  -20.2008   31.5387 H   0  0  0  0  0  0  0  0  0  0  0  0
  -15.1378  -21.9909   33.2571 H   0  0  0  0  0  0  0  0  0  0  0  0
  -14.0750  -19.4163   34.5786 H   0  0  0  0  0  0  0  0  0  0  0  0
  -15.1839  -20.6029   35.2989 H   0  0  0  0  0  0  0  0  0  0  0  0
  -16.3022  -18.8425   34.5119 H   0  0  0  0  0  0  0  0  0  0  0  0
  -13.2096  -22.8438   34.0887 H   0  0  0  0  0  0  0  0  0  0  0  0
  -10.0851  -22.3802   34.9428 H   0  0  0  0  0  0  0  0  0  0  0  0
  -11.5157  -23.2688   34.7886 H   0  0  0  0  0  0  0  0  0  0  0  0
  -12.1116  -24.1622   31.9757 H   0  0  0  0  0  0  0  0  0  0  0  0
  -10.1470  -25.3563   30.4966 H   0  0  0  0  0  0  0  0  0  0  0  0
   -8.2340  -23.1547   33.2779 H   0  0  0  0  0  0  0  0  0  0  0  0
  -10.0615  -22.2550   28.1883 H   0  0  0  0  0  0  0  0  0  0  0  0
  1  2  1  0
  2  3  1  0
  3  4  2  0
  4  5  1  0
  5  6  1  0
  6  7  2  0
  6  8  1  0
  8  9  1  0
  9 10  1  0
 10 11  1  0
 11 12  1  0
 10 13  1  0
 13 14  1  0
 14 15  2  0
 14 16  1  0
 16 17  1  0
 17 18  2  0
 18 19  1  0
 19 20  2  0
 20 21  1  0
  5 22  2  0
 22  2  1  0
 21 17  1  0
  1 23  1  0
  1 24  1  0
  1 25  1  0
  3 26  1  0
  8 27  1  0
  9 28  1  0
  9 29  1  0
 10 30  1  0
 11 31  1  0
 11 32  1  0
 12 33  1  0
 13 34  1  0
 16 35  1  0
 16 36  1  0
 18 37  1  0
 19 38  1  0
 21 39  1  0
 22 40  1  0
M  END
>  <Energy>  (198) 
94.563558071069451

>  <compound_id>  (198) 
8151

>  <target_id>  (198) 
1

>  <reference_id>  (198) 
96

>  <inspiration_ids>  (198) 
[35, 96]

>  <energy_score>  (198) 
15.135853967055795

>  <distance_score>  (198) 
2.0113198331952247

>  <path>  (198) 
/opt/xchem-fragalysis-2/maxwin/BulkDock/SCRATCH/511017/C8151-P96/C8151-P96.minimised.mol

>  <scratch_subdir>  (198) 
/opt/xchem-fragalysis-2/maxwin/BulkDock/SCRATCH/511017/C8151-P96

>  <fragmenstein_runtime>  (198) 
7.821691274642944

>  <fragmenstein_outcome>  (198) 
too moved

>  <fragmenstein_mode>  (198) 
expansion

>  <fragmenstein_error>  (198) 


$$$$
C8152-P35
     RDKit          3D

 29 30  0  0  0  0  0  0  0  0999 V2000
   -9.8937  -28.0242   31.1277 C   0  0  0  0  0  0  0  0  0  0  0  0
  -10.9677  -27.2345   31.9195 C   0  0  0  0  0  0  0  0  0  0  0  0
  -12.1693  -27.0941   30.9914 C   0  0  0  0  0  0  0  0  0  0  0  0
  -10.5208  -25.8930   32.5851 C   0  0  0  0  0  0  0  0  0  0  0  0
   -9.4502  -26.1607   33.5031 C   0  0  0  0  0  0  0  0  0  0  0  0
   -8.5120  -26.3755   34.1292 N   0  0  0  0  0  0  0  0  0  0  0  0
  -10.1108  -24.9023   31.6274 N   0  0  0  0  0  0  0  0  0  0  0  0
   -9.0186  -25.2170   30.8974 C   0  0  0  0  0  0  0  0  0  0  0  0
   -9.3067  -25.1806   29.6346 N   0  0  0  0  0  0  0  0  0  0  0  0
  -10.5131  -24.5577   29.5961 C   0  0  0  0  0  0  0  0  0  0  0  0
  -11.2485  -24.4824   28.3032 C   0  0  0  0  0  0  0  0  0  0  0  0
  -11.0841  -25.3928   27.2981 C   0  0  0  0  0  0  0  0  0  0  0  0
  -12.0106  -25.0021   26.3390 C   0  0  0  0  0  0  0  0  0  0  0  0
  -12.7002  -23.9270   26.7102 N   0  0  0  0  0  0  0  0  0  0  0  0
  -12.2052  -23.6199   27.9197 N   0  0  0  0  0  0  0  0  0  0  0  0
  -10.9703  -24.1873   30.8381 C   0  0  0  0  0  0  0  0  0  0  0  0
   -8.9216  -28.0500   31.6246 H   0  0  0  0  0  0  0  0  0  0  0  0
  -10.2355  -29.0561   30.9932 H   0  0  0  0  0  0  0  0  0  0  0  0
   -9.7459  -27.6391   30.1155 H   0  0  0  0  0  0  0  0  0  0  0  0
  -11.3113  -27.8720   32.7418 H   0  0  0  0  0  0  0  0  0  0  0  0
  -12.8817  -26.3320   31.3124 H   0  0  0  0  0  0  0  0  0  0  0  0
  -12.7154  -28.0449   30.9535 H   0  0  0  0  0  0  0  0  0  0  0  0
  -11.8877  -26.8717   29.9599 H   0  0  0  0  0  0  0  0  0  0  0  0
  -11.2812  -25.3642   33.1266 H   0  0  0  0  0  0  0  0  0  0  0  0
   -8.1404  -25.6235   31.3540 H   0  0  0  0  0  0  0  0  0  0  0  0
  -10.4329  -26.2546   27.3125 H   0  0  0  0  0  0  0  0  0  0  0  0
  -12.2367  -25.4712   25.3954 H   0  0  0  0  0  0  0  0  0  0  0  0
  -12.5454  -22.7961   28.3989 H   0  0  0  0  0  0  0  0  0  0  0  0
  -11.9072  -23.7788   31.1910 H   0  0  0  0  0  0  0  0  0  0  0  0
  1  2  1  0
  2  3  1  0
  2  4  1  0
  4  5  1  0
  5  6  3  0
  4  7  1  0
  7  8  1  0
  8  9  2  0
  9 10  1  0
 10 11  1  0
 11 12  2  0
 12 13  1  0
 13 14  2  0
 14 15  1  0
 10 16  2  0
 16  7  1  0
 15 11  1  0
  1 17  1  0
  1 18  1  0
  1 19  1  0
  2 20  1  0
  3 21  1  0
  3 22  1  0
  3 23  1  0
  4 24  1  0
  8 25  1  0
 12 26  1  0
 13 27  1  0
 15 28  1  0
 16 29  1  0
M  END
>  <Energy>  (199) 
46.079431658765664

>  <compound_id>  (199) 
8152

>  <target_id>  (199) 
1

>  <reference_id>  (199) 
35

>  <inspiration_ids>  (199) 
[35, 96]

>  <energy_score>  (199) 
12.065171884183883

>  <distance_score>  (199) 
2.0833959645074267

>  <path>  (199) 
/opt/xchem-fragalysis-2/maxwin/BulkDock/SCRATCH/511017/C8152-P35/C8152-P35.minimised.mol

>  <scratch_subdir>  (199) 
/opt/xchem-fragalysis-2/maxwin/BulkDock/SCRATCH/511017/C8152-P35

>  <fragmenstein_runtime>  (199) 
7.8364527225494385

>  <fragmenstein_outcome>  (199) 
too moved

>  <fragmenstein_mode>  (199) 
expansion

>  <fragmenstein_error>  (199) 


$$$$
C8152-P96
     RDKit          3D

 29 30  0  0  0  0  0  0  0  0999 V2000
   -9.1321  -25.0832   30.0830 C   0  0  0  0  0  0  0  0  0  0  0  0
   -9.4253  -25.5566   31.5032 C   0  0  0  0  0  0  0  0  0  0  0  0
  -10.7206  -26.3714   31.5126 C   0  0  0  0  0  0  0  0  0  0  0  0
   -9.2148  -24.4529   32.5559 C   0  0  0  0  0  0  0  0  0  0  0  0
   -8.8962  -25.0021   33.8524 C   0  0  0  0  0  0  0  0  0  0  0  0
   -8.7009  -25.4539   34.8969 N   0  0  0  0  0  0  0  0  0  0  0  0
  -10.2100  -23.3906   32.6660 N   0  0  0  0  0  0  0  0  0  0  0  0
   -9.7889  -22.1049   32.4849 C   0  0  0  0  0  0  0  0  0  0  0  0
  -10.3831  -21.6118   31.4250 N   0  0  0  0  0  0  0  0  0  0  0  0
  -11.2603  -22.5748   31.0582 C   0  0  0  0  0  0  0  0  0  0  0  0
  -11.6092  -22.9162   29.6085 C   0  0  0  0  0  0  0  0  0  0  0  0
  -11.0773  -22.3463   28.4803 C   0  0  0  0  0  0  0  0  0  0  0  0
  -11.4745  -23.1992   27.4343 C   0  0  0  0  0  0  0  0  0  0  0  0
  -12.2311  -24.2125   27.8656 N   0  0  0  0  0  0  0  0  0  0  0  0
  -12.3447  -23.9742   29.1826 N   0  0  0  0  0  0  0  0  0  0  0  0
  -11.4842  -23.3980   32.1324 C   0  0  0  0  0  0  0  0  0  0  0  0
   -8.1538  -25.4073   29.7346 H   0  0  0  0  0  0  0  0  0  0  0  0
   -9.8541  -25.4508   29.3483 H   0  0  0  0  0  0  0  0  0  0  0  0
   -9.0958  -23.9945   30.0088 H   0  0  0  0  0  0  0  0  0  0  0  0
   -8.6155  -26.2352   31.7464 H   0  0  0  0  0  0  0  0  0  0  0  0
  -10.7488  -27.0554   32.3642 H   0  0  0  0  0  0  0  0  0  0  0  0
  -11.6364  -25.7965   31.4989 H   0  0  0  0  0  0  0  0  0  0  0  0
  -10.8234  -26.9791   30.6066 H   0  0  0  0  0  0  0  0  0  0  0  0
   -8.2883  -23.9410   32.2455 H   0  0  0  0  0  0  0  0  0  0  0  0
   -8.9335  -21.6793   32.9836 H   0  0  0  0  0  0  0  0  0  0  0  0
  -10.4474  -21.4686   28.4291 H   0  0  0  0  0  0  0  0  0  0  0  0
  -11.2524  -23.1147   26.3784 H   0  0  0  0  0  0  0  0  0  0  0  0
  -12.8905  -24.6188   29.7399 H   0  0  0  0  0  0  0  0  0  0  0  0
  -12.1880  -24.1893   32.3109 H   0  0  0  0  0  0  0  0  0  0  0  0
  1  2  1  0
  2  3  1  0
  2  4  1  0
  4  5  1  0
  5  6  3  0
  4  7  1  0
  7  8  1  0
  8  9  2  0
  9 10  1  0
 10 11  1  0
 11 12  2  0
 12 13  1  0
 13 14  2  0
 14 15  1  0
 10 16  2  0
 16  7  1  0
 15 11  1  0
  1 17  1  0
  1 18  1  0
  1 19  1  0
  2 20  1  0
  3 21  1  0
  3 22  1  0
  3 23  1  0
  4 24  1  0
  8 25  1  0
 12 26  1  0
 13 27  1  0
 15 28  1  0
 16 29  1  0
M  END
>  <Energy>  (200) 
57.161215144196518

>  <compound_id>  (200) 
8152

>  <target_id>  (200) 
1

>  <reference_id>  (200) 
96

>  <inspiration_ids>  (200) 
[35, 96]

>  <energy_score>  (200) 
23.146955369615625

>  <distance_score>  (200) 
2.057547905187612

>  <path>  (200) 
/opt/xchem-fragalysis-2/maxwin/BulkDock/SCRATCH/511017/C8152-P96/C8152-P96.minimised.mol

>  <scratch_subdir>  (200) 
/opt/xchem-fragalysis-2/maxwin/BulkDock/SCRATCH/511017/C8152-P96

>  <fragmenstein_runtime>  (200) 
5.800628662109375

>  <fragmenstein_outcome>  (200) 
too moved

>  <fragmenstein_mode>  (200) 
expansion

>  <fragmenstein_error>  (200) 


$$$$
C8153-P35
     RDKit          3D

 34 35  0  0  0  0  0  0  0  0999 V2000
  -12.9415  -27.4411   30.1271 C   0  0  0  0  0  0  0  0  0  0  0  0
  -12.0423  -28.2221   30.9260 O   0  0  0  0  0  0  0  0  0  0  0  0
  -11.6673  -27.7093   32.1208 C   0  0  0  0  0  0  0  0  0  0  0  0
  -12.0056  -28.3000   33.1472 O   0  0  0  0  0  0  0  0  0  0  0  0
  -10.9385  -26.3642   32.1535 C   0  0  0  0  0  0  0  0  0  0  0  0
  -10.0046  -26.0408   33.3116 C   0  0  0  0  0  0  0  0  0  0  0  0
  -10.0148  -24.5177   33.5831 C   0  0  0  0  0  0  0  0  0  0  0  0
   -8.5858  -26.4731   33.0281 C   0  0  0  0  0  0  0  0  0  0  0  0
  -10.2614  -26.0244   30.9453 N   0  0  0  0  0  0  0  0  0  0  0  0
   -9.6648  -26.8653   30.0775 C   0  0  0  0  0  0  0  0  0  0  0  0
   -9.7180  -26.3433   28.8830 N   0  0  0  0  0  0  0  0  0  0  0  0
  -10.2480  -25.1164   29.0926 C   0  0  0  0  0  0  0  0  0  0  0  0
  -10.8806  -24.2683   28.0621 C   0  0  0  0  0  0  0  0  0  0  0  0
  -11.2937  -24.6678   26.8280 C   0  0  0  0  0  0  0  0  0  0  0  0
  -11.9102  -23.5275   26.3311 C   0  0  0  0  0  0  0  0  0  0  0  0
  -11.8548  -22.5086   27.1928 N   0  0  0  0  0  0  0  0  0  0  0  0
  -11.2543  -22.9908   28.2527 N   0  0  0  0  0  0  0  0  0  0  0  0
  -10.3999  -24.8002   30.4009 C   0  0  0  0  0  0  0  0  0  0  0  0
  -12.4850  -27.2515   29.1531 H   0  0  0  0  0  0  0  0  0  0  0  0
  -13.2248  -26.4978   30.6025 H   0  0  0  0  0  0  0  0  0  0  0  0
  -13.8476  -28.0330   29.9688 H   0  0  0  0  0  0  0  0  0  0  0  0
  -11.7560  -25.6409   32.1550 H   0  0  0  0  0  0  0  0  0  0  0  0
  -10.3133  -26.6039   34.1837 H   0  0  0  0  0  0  0  0  0  0  0  0
   -9.4721  -23.9582   32.8162 H   0  0  0  0  0  0  0  0  0  0  0  0
  -11.0244  -24.1022   33.6014 H   0  0  0  0  0  0  0  0  0  0  0  0
   -9.5446  -24.2816   34.5405 H   0  0  0  0  0  0  0  0  0  0  0  0
   -8.0925  -25.7517   32.3767 H   0  0  0  0  0  0  0  0  0  0  0  0
   -8.5492  -27.4405   32.5288 H   0  0  0  0  0  0  0  0  0  0  0  0
   -8.0267  -26.5345   33.9590 H   0  0  0  0  0  0  0  0  0  0  0  0
   -9.3402  -27.8716   30.3162 H   0  0  0  0  0  0  0  0  0  0  0  0
  -11.2182  -25.6514   26.3937 H   0  0  0  0  0  0  0  0  0  0  0  0
  -12.4018  -23.3734   25.3792 H   0  0  0  0  0  0  0  0  0  0  0  0
  -11.1139  -22.3847   29.0515 H   0  0  0  0  0  0  0  0  0  0  0  0
  -10.8589  -23.9660   30.9136 H   0  0  0  0  0  0  0  0  0  0  0  0
  1  2  1  0
  2  3  1  0
  3  4  2  0
  3  5  1  0
  5  6  1  0
  6  7  1  0
  6  8  1  0
  5  9  1  0
  9 10  1  0
 10 11  2  0
 11 12  1  0
 12 13  1  0
 13 14  2  0
 14 15  1  0
 15 16  2  0
 16 17  1  0
 12 18  2  0
 18  9  1  0
 17 13  1  0
  1 19  1  0
  1 20  1  0
  1 21  1  0
  5 22  1  0
  6 23  1  0
  7 24  1  0
  7 25  1  0
  7 26  1  0
  8 27  1  0
  8 28  1  0
  8 29  1  0
 10 30  1  0
 14 31  1  0
 15 32  1  0
 17 33  1  0
 18 34  1  0
M  END
>  <Energy>  (201) 
47.066022944959983

>  <compound_id>  (201) 
8153

>  <target_id>  (201) 
1

>  <reference_id>  (201) 
35

>  <inspiration_ids>  (201) 
[35, 96]

>  <energy_score>  (201) 
-2.584607480857926

>  <distance_score>  (201) 
2.6702871591508557

>  <path>  (201) 
/opt/xchem-fragalysis-2/maxwin/BulkDock/SCRATCH/511017/C8153-P35/C8153-P35.minimised.mol

>  <scratch_subdir>  (201) 
/opt/xchem-fragalysis-2/maxwin/BulkDock/SCRATCH/511017/C8153-P35

>  <fragmenstein_runtime>  (201) 
4.721341371536255

>  <fragmenstein_outcome>  (201) 
too moved

>  <fragmenstein_mode>  (201) 
expansion

>  <fragmenstein_error>  (201) 


$$$$
C8153-P96
     RDKit          3D

 34 35  0  0  0  0  0  0  0  0999 V2000
  -16.1388  -24.1025   33.1654 C   0  0  0  0  0  0  0  0  0  0  0  0
  -15.1622  -23.0761   33.3731 O   0  0  0  0  0  0  0  0  0  0  0  0
  -14.1288  -23.0933   32.4809 C   0  0  0  0  0  0  0  0  0  0  0  0
  -13.9891  -23.9874   31.6525 O   0  0  0  0  0  0  0  0  0  0  0  0
  -13.2177  -21.8532   32.6018 C   0  0  0  0  0  0  0  0  0  0  0  0
  -13.3700  -21.0341   33.8982 C   0  0  0  0  0  0  0  0  0  0  0  0
  -14.6234  -20.1439   33.8440 C   0  0  0  0  0  0  0  0  0  0  0  0
  -12.1682  -20.1387   34.1884 C   0  0  0  0  0  0  0  0  0  0  0  0
  -11.8432  -22.2210   32.2467 N   0  0  0  0  0  0  0  0  0  0  0  0
  -10.9909  -23.1001   32.8604 C   0  0  0  0  0  0  0  0  0  0  0  0
  -10.2494  -23.7285   31.9700 N   0  0  0  0  0  0  0  0  0  0  0  0
  -10.5803  -23.1287   30.7860 C   0  0  0  0  0  0  0  0  0  0  0  0
  -10.3741  -23.6986   29.3894 C   0  0  0  0  0  0  0  0  0  0  0  0
   -9.8873  -24.9355   29.0748 C   0  0  0  0  0  0  0  0  0  0  0  0
  -10.1926  -25.0765   27.7136 C   0  0  0  0  0  0  0  0  0  0  0  0
  -10.7223  -23.9741   27.1785 N   0  0  0  0  0  0  0  0  0  0  0  0
  -10.7924  -23.1300   28.2221 N   0  0  0  0  0  0  0  0  0  0  0  0
  -11.3530  -22.0143   30.9865 C   0  0  0  0  0  0  0  0  0  0  0  0
  -16.9432  -23.9537   33.8909 H   0  0  0  0  0  0  0  0  0  0  0  0
  -15.6962  -25.0888   33.3347 H   0  0  0  0  0  0  0  0  0  0  0  0
  -16.5638  -24.0334   32.1596 H   0  0  0  0  0  0  0  0  0  0  0  0
  -13.5558  -21.2014   31.7824 H   0  0  0  0  0  0  0  0  0  0  0  0
  -13.4773  -21.7339   34.7288 H   0  0  0  0  0  0  0  0  0  0  0  0
  -14.5444  -19.3997   33.0446 H   0  0  0  0  0  0  0  0  0  0  0  0
  -15.5369  -20.7172   33.6698 H   0  0  0  0  0  0  0  0  0  0  0  0
  -14.7586  -19.6052   34.7864 H   0  0  0  0  0  0  0  0  0  0  0  0
  -11.8901  -19.5385   33.3176 H   0  0  0  0  0  0  0  0  0  0  0  0
  -11.3123  -20.7502   34.4755 H   0  0  0  0  0  0  0  0  0  0  0  0
  -12.3693  -19.4548   35.0176 H   0  0  0  0  0  0  0  0  0  0  0  0
  -11.0125  -23.2791   33.9255 H   0  0  0  0  0  0  0  0  0  0  0  0
   -9.4834  -25.6533   29.7702 H   0  0  0  0  0  0  0  0  0  0  0  0
  -10.0421  -25.9370   27.0802 H   0  0  0  0  0  0  0  0  0  0  0  0
  -11.1819  -22.2054   28.0661 H   0  0  0  0  0  0  0  0  0  0  0  0
  -11.8048  -21.3158   30.2970 H   0  0  0  0  0  0  0  0  0  0  0  0
  1  2  1  0
  2  3  1  0
  3  4  2  0
  3  5  1  0
  5  6  1  0
  6  7  1  0
  6  8  1  0
  5  9  1  0
  9 10  1  0
 10 11  2  0
 11 12  1  0
 12 13  1  0
 13 14  2  0
 14 15  1  0
 15 16  2  0
 16 17  1  0
 12 18  2  0
 18  9  1  0
 17 13  1  0
  1 19  1  0
  1 20  1  0
  1 21  1  0
  5 22  1  0
  6 23  1  0
  7 24  1  0
  7 25  1  0
  7 26  1  0
  8 27  1  0
  8 28  1  0
  8 29  1  0
 10 30  1  0
 14 31  1  0
 15 32  1  0
 17 33  1  0
 18 34  1  0
M  END
>  <Energy>  (202) 
25.344006211300051

>  <compound_id>  (202) 
8153

>  <target_id>  (202) 
1

>  <reference_id>  (202) 
96

>  <inspiration_ids>  (202) 
[35, 96]

>  <energy_score>  (202) 
-24.306624214515523

>  <distance_score>  (202) 
3.4040835859965983

>  <path>  (202) 
/opt/xchem-fragalysis-2/maxwin/BulkDock/SCRATCH/511017/C8153-P96/C8153-P96.minimised.mol

>  <scratch_subdir>  (202) 
/opt/xchem-fragalysis-2/maxwin/BulkDock/SCRATCH/511017/C8153-P96

>  <fragmenstein_runtime>  (202) 
6.025935888290405

>  <fragmenstein_outcome>  (202) 
too moved

>  <fragmenstein_mode>  (202) 
expansion

>  <fragmenstein_error>  (202) 


$$$$
C8154-P35
     RDKit          3D

 43 45  0  0  0  0  0  0  0  0999 V2000
   -9.3507  -27.0010   29.7178 O   0  0  0  0  0  0  0  0  0  0  0  0
  -10.0228  -26.0428   29.7025 C   0  0  0  0  0  0  0  0  0  0  0  0
  -10.9224  -25.8604   28.4650 C   0  0  0  0  0  0  0  0  0  0  0  0
  -11.4568  -24.5061   28.3845 C   0  0  0  0  0  0  0  0  0  0  0  0
  -10.8213  -23.3142   28.1770 C   0  0  0  0  0  0  0  0  0  0  0  0
  -11.6728  -22.3778   28.7624 C   0  0  0  0  0  0  0  0  0  0  0  0
  -12.7755  -22.9431   29.2539 N   0  0  0  0  0  0  0  0  0  0  0  0
  -12.7114  -24.2018   28.8083 N   0  0  0  0  0  0  0  0  0  0  0  0
  -10.2440  -24.9411   30.7956 N   0  0  0  0  0  0  0  0  0  0  0  0
   -9.7487  -24.8548   32.1716 C   0  0  0  0  0  0  0  0  0  0  0  0
   -9.9609  -26.2865   32.7783 C   0  0  0  0  0  0  0  0  0  0  0  0
  -11.2239  -26.7421   32.2055 N   0  0  0  0  0  0  0  0  0  0  0  0
  -11.6279  -28.1060   31.6510 C   0  0  0  0  0  0  0  0  0  0  0  0
  -11.0482  -29.1116   31.6293 O   0  0  0  0  0  0  0  0  0  0  0  0
  -12.9189  -27.9683   30.9966 C   0  0  0  0  0  0  0  0  0  0  0  0
  -13.3436  -28.6320   29.8642 C   0  0  0  0  0  0  0  0  0  0  0  0
  -14.5698  -28.1793   29.4464 N   0  0  0  0  0  0  0  0  0  0  0  0
  -14.9122  -27.2582   30.3129 C   0  0  0  0  0  0  0  0  0  0  0  0
  -13.9404  -27.0777   31.2520 N   0  0  0  0  0  0  0  0  0  0  0  0
  -10.5668  -23.7754   32.9437 C   0  0  0  0  0  0  0  0  0  0  0  0
  -11.2412  -22.4715   32.3921 C   0  0  0  0  0  0  0  0  0  0  0  0
  -11.0197  -21.8300   33.7766 C   0  0  0  0  0  0  0  0  0  0  0  0
   -9.8495  -22.8157   33.9469 C   0  0  0  0  0  0  0  0  0  0  0  0
  -10.3374  -26.0920   27.5730 H   0  0  0  0  0  0  0  0  0  0  0  0
  -11.7258  -26.6005   28.5250 H   0  0  0  0  0  0  0  0  0  0  0  0
   -9.7998  -23.1789   27.8797 H   0  0  0  0  0  0  0  0  0  0  0  0
  -11.5104  -21.3256   28.9262 H   0  0  0  0  0  0  0  0  0  0  0  0
  -13.4878  -24.8306   28.9966 H   0  0  0  0  0  0  0  0  0  0  0  0
  -10.8277  -24.2086   30.4234 H   0  0  0  0  0  0  0  0  0  0  0  0
   -8.6915  -24.6070   32.1270 H   0  0  0  0  0  0  0  0  0  0  0  0
   -9.1757  -26.9717   32.4478 H   0  0  0  0  0  0  0  0  0  0  0  0
  -10.0110  -26.2881   33.8658 H   0  0  0  0  0  0  0  0  0  0  0  0
  -11.9374  -26.0641   31.9838 H   0  0  0  0  0  0  0  0  0  0  0  0
  -12.8104  -29.4024   29.3188 H   0  0  0  0  0  0  0  0  0  0  0  0
  -15.8330  -26.6892   30.3080 H   0  0  0  0  0  0  0  0  0  0  0  0
  -13.9687  -26.3925   32.0003 H   0  0  0  0  0  0  0  0  0  0  0  0
  -11.3491  -24.3272   33.4559 H   0  0  0  0  0  0  0  0  0  0  0  0
  -10.7060  -21.9507   31.5980 H   0  0  0  0  0  0  0  0  0  0  0  0
  -12.2887  -22.5772   32.0969 H   0  0  0  0  0  0  0  0  0  0  0  0
  -10.7546  -20.7699   33.7732 H   0  0  0  0  0  0  0  0  0  0  0  0
  -11.8436  -21.9933   34.4800 H   0  0  0  0  0  0  0  0  0  0  0  0
   -8.9037  -22.4077   33.5854 H   0  0  0  0  0  0  0  0  0  0  0  0
   -9.7100  -23.2050   34.9576 H   0  0  0  0  0  0  0  0  0  0  0  0
  1  2  2  0
  2  3  1  0
  3  4  1  0
  4  5  2  0
  5  6  1  0
  6  7  2  0
  7  8  1  0
  2  9  1  0
  9 10  1  0
 10 11  1  0
 11 12  1  0
 12 13  1  0
 13 14  2  0
 13 15  1  0
 15 16  2  0
 16 17  1  0
 17 18  2  0
 18 19  1  0
 10 20  1  0
 20 21  1  0
 21 22  1  0
 22 23  1  0
  8  4  1  0
 19 15  1  0
 23 20  1  0
  3 24  1  0
  3 25  1  0
  5 26  1  0
  6 27  1  0
  8 28  1  0
  9 29  1  0
 10 30  1  0
 11 31  1  0
 11 32  1  0
 12 33  1  0
 16 34  1  0
 18 35  1  0
 19 36  1  0
 20 37  1  0
 21 38  1  0
 21 39  1  0
 22 40  1  0
 22 41  1  0
 23 42  1  0
 23 43  1  0
M  END
>  <Energy>  (203) 
59.421103500870196

>  <compound_id>  (203) 
8154

>  <target_id>  (203) 
1

>  <reference_id>  (203) 
35

>  <inspiration_ids>  (203) 
[35, 96]

>  <energy_score>  (203) 
8.793283060169642

>  <distance_score>  (203) 
2.4554840752782985

>  <path>  (203) 
/opt/xchem-fragalysis-2/maxwin/BulkDock/SCRATCH/511017/C8154-P35/C8154-P35.minimised.mol

>  <scratch_subdir>  (203) 
/opt/xchem-fragalysis-2/maxwin/BulkDock/SCRATCH/511017/C8154-P35

>  <fragmenstein_runtime>  (203) 
4.873827219009399

>  <fragmenstein_outcome>  (203) 
too moved

>  <fragmenstein_mode>  (203) 
expansion

>  <fragmenstein_error>  (203) 


$$$$
C8154-P96
     RDKit          3D

 43 45  0  0  0  0  0  0  0  0999 V2000
  -13.0130  -22.8177   29.2166 O   0  0  0  0  0  0  0  0  0  0  0  0
  -12.0155  -22.4308   29.6723 C   0  0  0  0  0  0  0  0  0  0  0  0
  -10.8999  -21.9253   28.7662 C   0  0  0  0  0  0  0  0  0  0  0  0
  -10.2357  -23.1992   28.4288 C   0  0  0  0  0  0  0  0  0  0  0  0
  -10.5638  -24.1395   27.4807 C   0  0  0  0  0  0  0  0  0  0  0  0
  -10.0118  -25.3190   27.9866 C   0  0  0  0  0  0  0  0  0  0  0  0
   -9.2977  -25.1165   29.0897 N   0  0  0  0  0  0  0  0  0  0  0  0
   -9.3811  -23.8098   29.2937 N   0  0  0  0  0  0  0  0  0  0  0  0
  -11.5257  -22.4150   31.1307 N   0  0  0  0  0  0  0  0  0  0  0  0
  -12.1273  -22.9643   32.3348 C   0  0  0  0  0  0  0  0  0  0  0  0
  -13.5602  -23.4756   32.1032 C   0  0  0  0  0  0  0  0  0  0  0  0
  -13.5298  -24.5122   31.1040 N   0  0  0  0  0  0  0  0  0  0  0  0
  -13.3984  -26.0303   31.2488 C   0  0  0  0  0  0  0  0  0  0  0  0
  -13.3707  -26.6968   32.2007 O   0  0  0  0  0  0  0  0  0  0  0  0
  -13.1998  -26.6192   29.9354 C   0  0  0  0  0  0  0  0  0  0  0  0
  -12.4942  -27.7671   29.6261 C   0  0  0  0  0  0  0  0  0  0  0  0
  -12.5110  -28.0255   28.2794 N   0  0  0  0  0  0  0  0  0  0  0  0
  -13.2237  -27.0551   27.7585 C   0  0  0  0  0  0  0  0  0  0  0  0
  -13.6438  -26.1715   28.7103 N   0  0  0  0  0  0  0  0  0  0  0  0
  -12.0151  -21.9296   33.4351 C   0  0  0  0  0  0  0  0  0  0  0  0
  -13.2003  -21.0032   33.8288 C   0  0  0  0  0  0  0  0  0  0  0  0
  -12.1201  -19.9829   34.2617 C   0  0  0  0  0  0  0  0  0  0  0  0
  -11.2633  -20.6016   33.1372 C   0  0  0  0  0  0  0  0  0  0  0  0
  -11.3203  -21.4566   27.8794 H   0  0  0  0  0  0  0  0  0  0  0  0
  -10.2860  -21.1798   29.2579 H   0  0  0  0  0  0  0  0  0  0  0  0
  -11.2458  -24.0256   26.6497 H   0  0  0  0  0  0  0  0  0  0  0  0
  -10.1120  -26.3222   27.6017 H   0  0  0  0  0  0  0  0  0  0  0  0
   -8.9209  -23.4412   30.1191 H   0  0  0  0  0  0  0  0  0  0  0  0
  -10.5718  -22.0803   31.1628 H   0  0  0  0  0  0  0  0  0  0  0  0
  -11.4816  -23.8142   32.5824 H   0  0  0  0  0  0  0  0  0  0  0  0
  -14.0316  -23.8755   32.9952 H   0  0  0  0  0  0  0  0  0  0  0  0
  -14.1963  -22.6719   31.7311 H   0  0  0  0  0  0  0  0  0  0  0  0
  -13.6019  -24.2714   30.1227 H   0  0  0  0  0  0  0  0  0  0  0  0
  -11.9797  -28.4233   30.3176 H   0  0  0  0  0  0  0  0  0  0  0  0
  -13.4551  -26.9321   26.7089 H   0  0  0  0  0  0  0  0  0  0  0  0
  -14.1930  -25.3411   28.5270 H   0  0  0  0  0  0  0  0  0  0  0  0
  -11.6039  -22.4335   34.3229 H   0  0  0  0  0  0  0  0  0  0  0  0
  -13.8136  -20.6563   32.9875 H   0  0  0  0  0  0  0  0  0  0  0  0
  -13.8660  -21.3796   34.6049 H   0  0  0  0  0  0  0  0  0  0  0  0
  -12.3830  -18.9297   34.1503 H   0  0  0  0  0  0  0  0  0  0  0  0
  -11.7362  -20.1492   35.2719 H   0  0  0  0  0  0  0  0  0  0  0  0
  -11.4674  -20.1359   32.1652 H   0  0  0  0  0  0  0  0  0  0  0  0
  -10.1880  -20.6938   33.2332 H   0  0  0  0  0  0  0  0  0  0  0  0
  1  2  2  0
  2  3  1  0
  3  4  1  0
  4  5  2  0
  5  6  1  0
  6  7  2  0
  7  8  1  0
  2  9  1  0
  9 10  1  0
 10 11  1  0
 11 12  1  0
 12 13  1  0
 13 14  2  0
 13 15  1  0
 15 16  2  0
 16 17  1  0
 17 18  2  0
 18 19  1  0
 10 20  1  0
 20 21  1  0
 21 22  1  0
 22 23  1  0
  8  4  1  0
 19 15  1  0
 23 20  1  0
  3 24  1  0
  3 25  1  0
  5 26  1  0
  6 27  1  0
  8 28  1  0
  9 29  1  0
 10 30  1  0
 11 31  1  0
 11 32  1  0
 12 33  1  0
 16 34  1  0
 18 35  1  0
 19 36  1  0
 20 37  1  0
 21 38  1  0
 21 39  1  0
 22 40  1  0
 22 41  1  0
 23 42  1  0
 23 43  1  0
M  END
>  <Energy>  (204) 
44.947500888704973

>  <compound_id>  (204) 
8154

>  <target_id>  (204) 
1

>  <reference_id>  (204) 
96

>  <inspiration_ids>  (204) 
[35, 96]

>  <energy_score>  (204) 
-5.680319551994245

>  <distance_score>  (204) 
3.038259685545471

>  <path>  (204) 
/opt/xchem-fragalysis-2/maxwin/BulkDock/SCRATCH/511017/C8154-P96/C8154-P96.minimised.mol

>  <scratch_subdir>  (204) 
/opt/xchem-fragalysis-2/maxwin/BulkDock/SCRATCH/511017/C8154-P96

>  <fragmenstein_runtime>  (204) 
5.239234447479248

>  <fragmenstein_outcome>  (204) 
too moved

>  <fragmenstein_mode>  (204) 
expansion

>  <fragmenstein_error>  (204) 


$$$$
C8155-P35
     RDKit          3D

 40 41  0  0  0  0  0  0  0  0999 V2000
  -10.0791  -20.1065   33.1571 O   0  0  0  0  0  0  0  0  0  0  0  0
  -11.0964  -20.6690   33.0920 C   0  0  0  0  0  0  0  0  0  0  0  0
  -12.0009  -20.8575   34.2641 C   0  0  0  0  0  0  0  0  0  0  0  0
  -11.3898  -22.1393   34.8835 C   0  0  0  0  0  0  0  0  0  0  0  0
  -10.9793  -23.1881   33.8620 C   0  0  0  0  0  0  0  0  0  0  0  0
  -11.6428  -23.9470   32.9105 C   0  0  0  0  0  0  0  0  0  0  0  0
  -10.6828  -24.7599   32.3052 C   0  0  0  0  0  0  0  0  0  0  0  0
   -9.4669  -24.3827   32.6570 N   0  0  0  0  0  0  0  0  0  0  0  0
   -9.6722  -23.4108   33.5644 N   0  0  0  0  0  0  0  0  0  0  0  0
  -11.7450  -21.4364   31.9141 N   0  0  0  0  0  0  0  0  0  0  0  0
  -11.2411  -21.7427   30.6339 C   0  0  0  0  0  0  0  0  0  0  0  0
  -12.1087  -21.8860   29.4395 C   0  0  0  0  0  0  0  0  0  0  0  0
  -12.4702  -20.5756   29.1445 O   0  0  0  0  0  0  0  0  0  0  0  0
  -11.3528  -22.4902   28.2549 C   0  0  0  0  0  0  0  0  0  0  0  0
  -11.3819  -23.8969   28.3831 N   0  0  0  0  0  0  0  0  0  0  0  0
  -11.4713  -24.9866   27.3221 C   0  0  0  0  0  0  0  0  0  0  0  0
  -11.6126  -24.9088   26.1739 O   0  0  0  0  0  0  0  0  0  0  0  0
  -11.4351  -26.1712   28.1016 C   0  0  0  0  0  0  0  0  0  0  0  0
  -10.3865  -26.7423   28.7820 C   0  0  0  0  0  0  0  0  0  0  0  0
  -10.8575  -27.3841   29.8944 N   0  0  0  0  0  0  0  0  0  0  0  0
  -12.1641  -27.2788   29.8407 C   0  0  0  0  0  0  0  0  0  0  0  0
  -12.5668  -26.6336   28.7142 N   0  0  0  0  0  0  0  0  0  0  0  0
  -13.0466  -21.0005   33.9788 H   0  0  0  0  0  0  0  0  0  0  0  0
  -11.9382  -20.0055   34.9463 H   0  0  0  0  0  0  0  0  0  0  0  0
  -10.5000  -21.8562   35.4642 H   0  0  0  0  0  0  0  0  0  0  0  0
  -12.0887  -22.5560   35.6127 H   0  0  0  0  0  0  0  0  0  0  0  0
  -12.7040  -23.9578   32.7035 H   0  0  0  0  0  0  0  0  0  0  0  0
  -10.8025  -25.5614   31.5955 H   0  0  0  0  0  0  0  0  0  0  0  0
   -8.8822  -22.8725   33.8995 H   0  0  0  0  0  0  0  0  0  0  0  0
  -12.6000  -21.8758   32.2269 H   0  0  0  0  0  0  0  0  0  0  0  0
  -10.8629  -22.7370   30.8050 H   0  0  0  0  0  0  0  0  0  0  0  0
  -10.4494  -21.0382   30.4483 H   0  0  0  0  0  0  0  0  0  0  0  0
  -12.9860  -22.4876   29.6983 H   0  0  0  0  0  0  0  0  0  0  0  0
  -11.8443  -20.2322   28.4787 H   0  0  0  0  0  0  0  0  0  0  0  0
  -11.7785  -22.2246   27.2891 H   0  0  0  0  0  0  0  0  0  0  0  0
  -10.3126  -22.1705   28.2543 H   0  0  0  0  0  0  0  0  0  0  0  0
  -11.1734  -24.3184   29.2852 H   0  0  0  0  0  0  0  0  0  0  0  0
   -9.3257  -26.6087   28.6290 H   0  0  0  0  0  0  0  0  0  0  0  0
  -12.8605  -27.6600   30.5764 H   0  0  0  0  0  0  0  0  0  0  0  0
  -13.5160  -26.3656   28.4904 H   0  0  0  0  0  0  0  0  0  0  0  0
  1  2  2  0
  2  3  1  0
  3  4  1  0
  4  5  1  0
  5  6  2  0
  6  7  1  0
  7  8  2  0
  8  9  1  0
  2 10  1  0
 10 11  1  0
 11 12  1  0
 12 13  1  0
 12 14  1  0
 14 15  1  0
 15 16  1  0
 16 17  2  0
 16 18  1  0
 18 19  2  0
 19 20  1  0
 20 21  2  0
 21 22  1  0
  9  5  1  0
 22 18  1  0
  3 23  1  0
  3 24  1  0
  4 25  1  0
  4 26  1  0
  6 27  1  0
  7 28  1  0
  9 29  1  0
 10 30  1  0
 11 31  1  0
 11 32  1  0
 12 33  1  0
 13 34  1  0
 14 35  1  0
 14 36  1  0
 15 37  1  0
 19 38  1  0
 21 39  1  0
 22 40  1  0
M  END
>  <Energy>  (205) 
62.732711433305298

>  <compound_id>  (205) 
8155

>  <target_id>  (205) 
1

>  <reference_id>  (205) 
35

>  <inspiration_ids>  (205) 
[35, 96]

>  <energy_score>  (205) 
62.537395817283624

>  <distance_score>  (205) 
2.2417095131124

>  <path>  (205) 
/opt/xchem-fragalysis-2/maxwin/BulkDock/SCRATCH/511017/C8155-P35/C8155-P35.minimised.mol

>  <scratch_subdir>  (205) 
/opt/xchem-fragalysis-2/maxwin/BulkDock/SCRATCH/511017/C8155-P35

>  <fragmenstein_runtime>  (205) 
6.6454222202301025

>  <fragmenstein_outcome>  (205) 
too moved

>  <fragmenstein_mode>  (205) 
expansion

>  <fragmenstein_error>  (205) 


$$$$
C8155-P96
     RDKit          3D

 40 41  0  0  0  0  0  0  0  0999 V2000
   -9.7371  -20.6624   32.5105 O   0  0  0  0  0  0  0  0  0  0  0  0
  -10.8717  -20.7207   32.2941 C   0  0  0  0  0  0  0  0  0  0  0  0
  -11.8634  -20.9645   33.4008 C   0  0  0  0  0  0  0  0  0  0  0  0
  -11.5321  -22.3357   33.9443 C   0  0  0  0  0  0  0  0  0  0  0  0
  -11.5664  -23.3446   32.8528 C   0  0  0  0  0  0  0  0  0  0  0  0
  -12.6259  -23.8338   32.1276 C   0  0  0  0  0  0  0  0  0  0  0  0
  -12.0695  -24.8512   31.3504 C   0  0  0  0  0  0  0  0  0  0  0  0
  -10.7366  -24.9069   31.4463 N   0  0  0  0  0  0  0  0  0  0  0  0
  -10.4450  -23.9727   32.3773 N   0  0  0  0  0  0  0  0  0  0  0  0
  -11.6381  -20.5444   30.9912 N   0  0  0  0  0  0  0  0  0  0  0  0
  -11.1663  -20.3507   29.6519 C   0  0  0  0  0  0  0  0  0  0  0  0
  -11.1889  -21.6066   28.8245 C   0  0  0  0  0  0  0  0  0  0  0  0
  -12.4319  -22.2763   29.1573 O   0  0  0  0  0  0  0  0  0  0  0  0
   -9.9980  -22.5430   29.0323 C   0  0  0  0  0  0  0  0  0  0  0  0
  -10.4767  -23.8186   28.6767 N   0  0  0  0  0  0  0  0  0  0  0  0
  -10.8137  -24.4032   27.3154 C   0  0  0  0  0  0  0  0  0  0  0  0
  -10.6812  -23.9601   26.2534 O   0  0  0  0  0  0  0  0  0  0  0  0
  -11.4535  -25.6373   27.5866 C   0  0  0  0  0  0  0  0  0  0  0  0
  -11.2579  -26.5675   28.5768 C   0  0  0  0  0  0  0  0  0  0  0  0
  -12.3989  -27.2770   28.7904 N   0  0  0  0  0  0  0  0  0  0  0  0
  -13.2603  -26.8196   27.9115 C   0  0  0  0  0  0  0  0  0  0  0  0
  -12.7025  -25.8872   27.0947 N   0  0  0  0  0  0  0  0  0  0  0  0
  -12.9029  -20.9144   33.0619 H   0  0  0  0  0  0  0  0  0  0  0  0
  -11.7441  -20.1928   34.1678 H   0  0  0  0  0  0  0  0  0  0  0  0
  -10.5635  -22.3588   34.4501 H   0  0  0  0  0  0  0  0  0  0  0  0
  -12.2996  -22.5830   34.6764 H   0  0  0  0  0  0  0  0  0  0  0  0
  -13.6670  -23.5568   32.2165 H   0  0  0  0  0  0  0  0  0  0  0  0
  -12.5921  -25.5482   30.7103 H   0  0  0  0  0  0  0  0  0  0  0  0
   -9.4746  -23.8258   32.6473 H   0  0  0  0  0  0  0  0  0  0  0  0
  -12.6188  -20.7443   31.1466 H   0  0  0  0  0  0  0  0  0  0  0  0
  -11.8756  -19.6461   29.2312 H   0  0  0  0  0  0  0  0  0  0  0  0
  -10.1897  -19.8848   29.6819 H   0  0  0  0  0  0  0  0  0  0  0  0
  -11.2175  -21.3583   27.7621 H   0  0  0  0  0  0  0  0  0  0  0  0
  -12.2480  -23.2172   28.9925 H   0  0  0  0  0  0  0  0  0  0  0  0
   -9.1349  -22.2769   28.4242 H   0  0  0  0  0  0  0  0  0  0  0  0
   -9.7423  -22.6440   30.0848 H   0  0  0  0  0  0  0  0  0  0  0  0
  -10.6493  -24.5164   29.3979 H   0  0  0  0  0  0  0  0  0  0  0  0
  -10.4227  -26.6573   29.2542 H   0  0  0  0  0  0  0  0  0  0  0  0
  -14.2880  -27.1428   27.8073 H   0  0  0  0  0  0  0  0  0  0  0  0
  -13.1769  -25.3423   26.3864 H   0  0  0  0  0  0  0  0  0  0  0  0
  1  2  2  0
  2  3  1  0
  3  4  1  0
  4  5  1  0
  5  6  2  0
  6  7  1  0
  7  8  2  0
  8  9  1  0
  2 10  1  0
 10 11  1  0
 11 12  1  0
 12 13  1  0
 12 14  1  0
 14 15  1  0
 15 16  1  0
 16 17  2  0
 16 18  1  0
 18 19  2  0
 19 20  1  0
 20 21  2  0
 21 22  1  0
  9  5  1  0
 22 18  1  0
  3 23  1  0
  3 24  1  0
  4 25  1  0
  4 26  1  0
  6 27  1  0
  7 28  1  0
  9 29  1  0
 10 30  1  0
 11 31  1  0
 11 32  1  0
 12 33  1  0
 13 34  1  0
 14 35  1  0
 14 36  1  0
 15 37  1  0
 19 38  1  0
 21 39  1  0
 22 40  1  0
M  END
>  <Energy>  (206) 
16.789596922071265

>  <compound_id>  (206) 
8155

>  <target_id>  (206) 
1

>  <reference_id>  (206) 
96

>  <inspiration_ids>  (206) 
[35, 96]

>  <energy_score>  (206) 
16.594281306051506

>  <distance_score>  (206) 
2.471726730146005

>  <path>  (206) 
/opt/xchem-fragalysis-2/maxwin/BulkDock/SCRATCH/511017/C8155-P96/C8155-P96.minimised.mol

>  <scratch_subdir>  (206) 
/opt/xchem-fragalysis-2/maxwin/BulkDock/SCRATCH/511017/C8155-P96

>  <fragmenstein_runtime>  (206) 
6.0179643630981445

>  <fragmenstein_outcome>  (206) 
too moved

>  <fragmenstein_mode>  (206) 
expansion

>  <fragmenstein_error>  (206) 


$$$$
C8156-P35
     RDKit          3D

 42 43  0  0  0  0  0  0  0  0999 V2000
  -12.5262  -25.7634   30.7359 C   0  0  0  0  0  0  0  0  0  0  0  0
  -11.3285  -26.4211   31.3984 N   0  0  0  0  0  0  0  0  0  0  0  0
  -11.0268  -25.0207   31.7597 C   0  0  0  0  0  0  0  0  0  0  0  0
   -9.8945  -24.8745   32.8099 C   0  0  0  0  0  0  0  0  0  0  0  0
   -9.9315  -23.4602   33.1567 N   0  0  0  0  0  0  0  0  0  0  0  0
  -10.0926  -22.8059   34.4161 C   0  0  0  0  0  0  0  0  0  0  0  0
  -10.1582  -23.2478   35.5229 O   0  0  0  0  0  0  0  0  0  0  0  0
  -10.3008  -21.3204   34.1853 C   0  0  0  0  0  0  0  0  0  0  0  0
  -11.7742  -21.1016   33.8033 C   0  0  0  0  0  0  0  0  0  0  0  0
  -12.1472  -21.6504   32.4540 C   0  0  0  0  0  0  0  0  0  0  0  0
  -11.5092  -21.5950   31.2338 C   0  0  0  0  0  0  0  0  0  0  0  0
  -12.3184  -22.2852   30.3328 C   0  0  0  0  0  0  0  0  0  0  0  0
  -13.4167  -22.7452   30.9249 N   0  0  0  0  0  0  0  0  0  0  0  0
  -13.2965  -22.3633   32.2159 N   0  0  0  0  0  0  0  0  0  0  0  0
  -10.6977  -27.2945   30.4949 C   0  0  0  0  0  0  0  0  0  0  0  0
   -9.8048  -27.1014   29.7162 O   0  0  0  0  0  0  0  0  0  0  0  0
  -11.4159  -28.5553   30.5819 C   0  0  0  0  0  0  0  0  0  0  0  0
  -11.6859  -29.1773   31.7176 N   0  0  0  0  0  0  0  0  0  0  0  0
  -12.6086  -30.1351   31.4011 C   0  0  0  0  0  0  0  0  0  0  0  0
  -12.9485  -30.0712   30.0719 C   0  0  0  0  0  0  0  0  0  0  0  0
  -12.1648  -29.0772   29.5597 N   0  0  0  0  0  0  0  0  0  0  0  0
  -12.2180  -28.5666   28.2154 C   0  0  0  0  0  0  0  0  0  0  0  0
  -13.1187  -26.5825   30.3060 H   0  0  0  0  0  0  0  0  0  0  0  0
  -12.2698  -25.1674   29.8465 H   0  0  0  0  0  0  0  0  0  0  0  0
  -13.2699  -25.3076   31.4001 H   0  0  0  0  0  0  0  0  0  0  0  0
  -10.6613  -24.4729   30.8772 H   0  0  0  0  0  0  0  0  0  0  0  0
  -11.8463  -24.5064   32.2706 H   0  0  0  0  0  0  0  0  0  0  0  0
   -8.9305  -25.1114   32.3530 H   0  0  0  0  0  0  0  0  0  0  0  0
  -10.0490  -25.4972   33.6901 H   0  0  0  0  0  0  0  0  0  0  0  0
   -9.8354  -22.7680   32.4389 H   0  0  0  0  0  0  0  0  0  0  0  0
  -10.0753  -20.7945   35.1205 H   0  0  0  0  0  0  0  0  0  0  0  0
   -9.6085  -20.9359   33.4296 H   0  0  0  0  0  0  0  0  0  0  0  0
  -12.4212  -21.5492   34.5686 H   0  0  0  0  0  0  0  0  0  0  0  0
  -11.9743  -20.0251   33.8137 H   0  0  0  0  0  0  0  0  0  0  0  0
  -10.5831  -21.0928   31.0358 H   0  0  0  0  0  0  0  0  0  0  0  0
  -12.1633  -22.4655   29.2764 H   0  0  0  0  0  0  0  0  0  0  0  0
  -14.0216  -22.6385   32.8769 H   0  0  0  0  0  0  0  0  0  0  0  0
  -12.9928  -30.8123   32.1518 H   0  0  0  0  0  0  0  0  0  0  0  0
  -13.6470  -30.6401   29.4755 H   0  0  0  0  0  0  0  0  0  0  0  0
  -11.2107  -28.3341   27.8657 H   0  0  0  0  0  0  0  0  0  0  0  0
  -12.8447  -27.6722   28.2023 H   0  0  0  0  0  0  0  0  0  0  0  0
  -12.6559  -29.3340   27.5747 H   0  0  0  0  0  0  0  0  0  0  0  0
  1  2  1  0
  2  3  1  0
  3  4  1  0
  4  5  1  0
  5  6  1  0
  6  7  2  0
  6  8  1  0
  8  9  1  0
  9 10  1  0
 10 11  2  0
 11 12  1  0
 12 13  2  0
 13 14  1  0
  2 15  1  0
 15 16  2  0
 15 17  1  0
 17 18  2  0
 18 19  1  0
 19 20  2  0
 20 21  1  0
 21 22  1  0
 14 10  1  0
 21 17  1  0
  1 23  1  0
  1 24  1  0
  1 25  1  0
  3 26  1  0
  3 27  1  0
  4 28  1  0
  4 29  1  0
  5 30  1  0
  8 31  1  0
  8 32  1  0
  9 33  1  0
  9 34  1  0
 11 35  1  0
 12 36  1  0
 14 37  1  0
 19 38  1  0
 20 39  1  0
 22 40  1  0
 22 41  1  0
 22 42  1  0
M  END
>  <Energy>  (207) 
107.27915579136391

>  <compound_id>  (207) 
8156

>  <target_id>  (207) 
1

>  <reference_id>  (207) 
35

>  <inspiration_ids>  (207) 
[35, 96]

>  <energy_score>  (207) 
78.28478382667043

>  <distance_score>  (207) 
3.158858203788571

>  <path>  (207) 
/opt/xchem-fragalysis-2/maxwin/BulkDock/SCRATCH/511017/C8156-P35/C8156-P35.minimised.mol

>  <scratch_subdir>  (207) 
/opt/xchem-fragalysis-2/maxwin/BulkDock/SCRATCH/511017/C8156-P35

>  <fragmenstein_runtime>  (207) 
7.497498989105225

>  <fragmenstein_outcome>  (207) 
too moved

>  <fragmenstein_mode>  (207) 
expansion

>  <fragmenstein_error>  (207) 


$$$$
C8156-P96
     RDKit          3D

 42 43  0  0  0  0  0  0  0  0999 V2000
  -13.5103  -22.0045   31.6321 C   0  0  0  0  0  0  0  0  0  0  0  0
  -13.5079  -23.1496   32.5814 N   0  0  0  0  0  0  0  0  0  0  0  0
  -12.7220  -22.1416   33.4433 C   0  0  0  0  0  0  0  0  0  0  0  0
  -11.1823  -21.9715   33.3346 C   0  0  0  0  0  0  0  0  0  0  0  0
  -10.4895  -23.0500   32.6912 N   0  0  0  0  0  0  0  0  0  0  0  0
   -9.1056  -23.2916   32.5119 C   0  0  0  0  0  0  0  0  0  0  0  0
   -8.1583  -22.6226   32.7807 O   0  0  0  0  0  0  0  0  0  0  0  0
   -8.9163  -24.6081   31.7568 C   0  0  0  0  0  0  0  0  0  0  0  0
   -8.7271  -24.3830   30.2566 C   0  0  0  0  0  0  0  0  0  0  0  0
   -9.9050  -23.9628   29.4476 C   0  0  0  0  0  0  0  0  0  0  0  0
  -10.4107  -24.4356   28.2552 C   0  0  0  0  0  0  0  0  0  0  0  0
  -11.4731  -23.5684   27.9418 C   0  0  0  0  0  0  0  0  0  0  0  0
  -11.6595  -22.6408   28.8833 N   0  0  0  0  0  0  0  0  0  0  0  0
  -10.6515  -22.8581   29.7383 N   0  0  0  0  0  0  0  0  0  0  0  0
  -13.0826  -24.3452   31.9138 C   0  0  0  0  0  0  0  0  0  0  0  0
  -11.9850  -24.8156   31.7834 O   0  0  0  0  0  0  0  0  0  0  0  0
  -14.1818  -25.1737   31.3927 C   0  0  0  0  0  0  0  0  0  0  0  0
  -15.4531  -25.0601   31.7415 N   0  0  0  0  0  0  0  0  0  0  0  0
  -16.0702  -26.2054   31.3103 C   0  0  0  0  0  0  0  0  0  0  0  0
  -15.2039  -26.9860   30.5896 C   0  0  0  0  0  0  0  0  0  0  0  0
  -14.0144  -26.3160   30.6251 N   0  0  0  0  0  0  0  0  0  0  0  0
  -12.7961  -26.7817   30.0053 C   0  0  0  0  0  0  0  0  0  0  0  0
  -12.5562  -21.5199   31.3869 H   0  0  0  0  0  0  0  0  0  0  0  0
  -13.7668  -22.4339   30.6653 H   0  0  0  0  0  0  0  0  0  0  0  0
  -14.2907  -21.2753   31.8878 H   0  0  0  0  0  0  0  0  0  0  0  0
  -12.8338  -22.5887   34.4354 H   0  0  0  0  0  0  0  0  0  0  0  0
  -13.2367  -21.1806   33.6278 H   0  0  0  0  0  0  0  0  0  0  0  0
  -10.9293  -21.0541   32.7922 H   0  0  0  0  0  0  0  0  0  0  0  0
  -10.7691  -21.8659   34.3390 H   0  0  0  0  0  0  0  0  0  0  0  0
  -11.0062  -23.8793   32.4206 H   0  0  0  0  0  0  0  0  0  0  0  0
   -8.0201  -25.0697   32.1872 H   0  0  0  0  0  0  0  0  0  0  0  0
   -9.7117  -25.3286   31.9559 H   0  0  0  0  0  0  0  0  0  0  0  0
   -7.9461  -23.6388   30.1035 H   0  0  0  0  0  0  0  0  0  0  0  0
   -8.3577  -25.3112   29.8150 H   0  0  0  0  0  0  0  0  0  0  0  0
  -10.0494  -25.2747   27.6785 H   0  0  0  0  0  0  0  0  0  0  0  0
  -12.1228  -23.5775   27.0754 H   0  0  0  0  0  0  0  0  0  0  0  0
  -10.5401  -22.2301   30.5274 H   0  0  0  0  0  0  0  0  0  0  0  0
  -17.1147  -26.3955   31.5255 H   0  0  0  0  0  0  0  0  0  0  0  0
  -15.3313  -27.9338   30.0849 H   0  0  0  0  0  0  0  0  0  0  0  0
  -12.1173  -27.1380   30.7834 H   0  0  0  0  0  0  0  0  0  0  0  0
  -12.3633  -25.9615   29.4372 H   0  0  0  0  0  0  0  0  0  0  0  0
  -13.0294  -27.6027   29.3216 H   0  0  0  0  0  0  0  0  0  0  0  0
  1  2  1  0
  2  3  1  0
  3  4  1  0
  4  5  1  0
  5  6  1  0
  6  7  2  0
  6  8  1  0
  8  9  1  0
  9 10  1  0
 10 11  2  0
 11 12  1  0
 12 13  2  0
 13 14  1  0
  2 15  1  0
 15 16  2  0
 15 17  1  0
 17 18  2  0
 18 19  1  0
 19 20  2  0
 20 21  1  0
 21 22  1  0
 14 10  1  0
 21 17  1  0
  1 23  1  0
  1 24  1  0
  1 25  1  0
  3 26  1  0
  3 27  1  0
  4 28  1  0
  4 29  1  0
  5 30  1  0
  8 31  1  0
  8 32  1  0
  9 33  1  0
  9 34  1  0
 11 35  1  0
 12 36  1  0
 14 37  1  0
 19 38  1  0
 20 39  1  0
 22 40  1  0
 22 41  1  0
 22 42  1  0
M  END
>  <Energy>  (208) 
99.137529460578335

>  <compound_id>  (208) 
8156

>  <target_id>  (208) 
1

>  <reference_id>  (208) 
96

>  <inspiration_ids>  (208) 
[35, 96]

>  <energy_score>  (208) 
70.14315749588309

>  <distance_score>  (208) 
3.7906039413269808

>  <path>  (208) 
/opt/xchem-fragalysis-2/maxwin/BulkDock/SCRATCH/511017/C8156-P96/C8156-P96.minimised.mol

>  <scratch_subdir>  (208) 
/opt/xchem-fragalysis-2/maxwin/BulkDock/SCRATCH/511017/C8156-P96

>  <fragmenstein_runtime>  (208) 
10.416507005691528

>  <fragmenstein_outcome>  (208) 
too moved

>  <fragmenstein_mode>  (208) 
expansion

>  <fragmenstein_error>  (208) 


$$$$
C8157-P35
     RDKit          3D

 25 26  0  0  0  0  0  0  0  0999 V2000
  -11.0735  -27.2738   26.9011 O   0  0  0  0  0  0  0  0  0  0  0  0
  -10.6889  -26.6418   27.8791 C   0  0  0  0  0  0  0  0  0  0  0  0
   -9.8781  -27.2319   28.7904 O   0  0  0  0  0  0  0  0  0  0  0  0
  -11.0319  -25.2587   28.2051 C   0  0  0  0  0  0  0  0  0  0  0  0
  -10.5618  -24.5110   29.2717 C   0  0  0  0  0  0  0  0  0  0  0  0
  -11.3544  -23.3969   29.3429 N   0  0  0  0  0  0  0  0  0  0  0  0
  -11.5496  -22.3544   30.3513 C   0  0  0  0  0  0  0  0  0  0  0  0
  -11.3205  -22.4807   31.8906 C   0  0  0  0  0  0  0  0  0  0  0  0
  -10.9381  -23.8223   32.3341 C   0  0  0  0  0  0  0  0  0  0  0  0
  -11.3885  -25.0606   31.9545 C   0  0  0  0  0  0  0  0  0  0  0  0
  -10.4709  -25.9588   32.5052 C   0  0  0  0  0  0  0  0  0  0  0  0
   -9.6180  -25.3535   33.3222 N   0  0  0  0  0  0  0  0  0  0  0  0
   -9.9674  -24.0609   33.2559 N   0  0  0  0  0  0  0  0  0  0  0  0
  -11.9746  -23.3471   28.1241 C   0  0  0  0  0  0  0  0  0  0  0  0
  -11.8756  -24.4712   27.4568 N   0  0  0  0  0  0  0  0  0  0  0  0
   -9.7021  -28.1272   28.4361 H   0  0  0  0  0  0  0  0  0  0  0  0
   -9.8138  -24.7684   30.0078 H   0  0  0  0  0  0  0  0  0  0  0  0
  -11.0180  -21.4717   29.9767 H   0  0  0  0  0  0  0  0  0  0  0  0
  -12.6119  -22.0924   30.2503 H   0  0  0  0  0  0  0  0  0  0  0  0
  -10.5696  -21.7405   32.1918 H   0  0  0  0  0  0  0  0  0  0  0  0
  -12.2415  -22.1799   32.4069 H   0  0  0  0  0  0  0  0  0  0  0  0
  -12.2129  -25.2944   31.2949 H   0  0  0  0  0  0  0  0  0  0  0  0
  -10.4058  -27.0274   32.3702 H   0  0  0  0  0  0  0  0  0  0  0  0
   -9.4650  -23.3913   33.8298 H   0  0  0  0  0  0  0  0  0  0  0  0
  -12.4974  -22.4735   27.7885 H   0  0  0  0  0  0  0  0  0  0  0  0
  1  2  2  0
  2  3  1  0
  2  4  1  0
  4  5  2  0
  5  6  1  0
  6  7  1  0
  7  8  1  0
  8  9  1  0
  9 10  2  0
 10 11  1  0
 11 12  2  0
 12 13  1  0
  6 14  1  0
 14 15  2  0
 15  4  1  0
 13  9  1  0
  3 16  1  0
  5 17  1  0
  7 18  1  0
  7 19  1  0
  8 20  1  0
  8 21  1  0
 10 22  1  0
 11 23  1  0
 13 24  1  0
 14 25  1  0
M  END
>  <Energy>  (209) 
58.286902642692112

>  <compound_id>  (209) 
8157

>  <target_id>  (209) 
1

>  <reference_id>  (209) 
35

>  <inspiration_ids>  (209) 
[35, 96]

>  <energy_score>  (209) 
-10.034550943180307

>  <distance_score>  (209) 
1.8711811771661493

>  <path>  (209) 
/opt/xchem-fragalysis-2/maxwin/BulkDock/SCRATCH/511017/C8157-P35/C8157-P35.minimised.mol

>  <scratch_subdir>  (209) 
/opt/xchem-fragalysis-2/maxwin/BulkDock/SCRATCH/511017/C8157-P35

>  <fragmenstein_runtime>  (209) 
1.5172083377838135

>  <fragmenstein_outcome>  (209) 
too moved

>  <fragmenstein_mode>  (209) 
expansion

>  <fragmenstein_error>  (209) 


$$$$
C8157-P96
     RDKit          3D

 25 26  0  0  0  0  0  0  0  0999 V2000
  -12.4643  -24.4066   26.6614 O   0  0  0  0  0  0  0  0  0  0  0  0
  -11.4290  -24.0112   27.1800 C   0  0  0  0  0  0  0  0  0  0  0  0
  -10.5322  -23.3300   26.4384 O   0  0  0  0  0  0  0  0  0  0  0  0
  -11.0300  -24.1952   28.5678 C   0  0  0  0  0  0  0  0  0  0  0  0
   -9.8798  -23.7462   29.2017 C   0  0  0  0  0  0  0  0  0  0  0  0
  -10.0021  -24.1184   30.5132 N   0  0  0  0  0  0  0  0  0  0  0  0
   -9.0627  -23.8977   31.6001 C   0  0  0  0  0  0  0  0  0  0  0  0
   -9.3947  -22.8872   32.7331 C   0  0  0  0  0  0  0  0  0  0  0  0
  -10.7995  -22.4512   32.7592 C   0  0  0  0  0  0  0  0  0  0  0  0
  -11.5839  -21.8718   31.7836 C   0  0  0  0  0  0  0  0  0  0  0  0
  -12.8853  -21.9853   32.2744 C   0  0  0  0  0  0  0  0  0  0  0  0
  -12.9058  -22.4573   33.5172 N   0  0  0  0  0  0  0  0  0  0  0  0
  -11.6106  -22.5761   33.8516 N   0  0  0  0  0  0  0  0  0  0  0  0
  -11.1708  -24.8187   30.6128 C   0  0  0  0  0  0  0  0  0  0  0  0
  -11.8180  -24.8659   29.4741 N   0  0  0  0  0  0  0  0  0  0  0  0
  -11.0281  -23.1515   25.6130 H   0  0  0  0  0  0  0  0  0  0  0  0
   -9.0415  -23.1778   28.8316 H   0  0  0  0  0  0  0  0  0  0  0  0
   -8.9088  -24.8860   32.0548 H   0  0  0  0  0  0  0  0  0  0  0  0
   -8.1017  -23.6293   31.1501 H   0  0  0  0  0  0  0  0  0  0  0  0
   -9.1049  -23.3368   33.6916 H   0  0  0  0  0  0  0  0  0  0  0  0
   -8.7544  -22.0092   32.6257 H   0  0  0  0  0  0  0  0  0  0  0  0
  -11.2851  -21.5460   30.7973 H   0  0  0  0  0  0  0  0  0  0  0  0
  -13.8219  -21.7444   31.7878 H   0  0  0  0  0  0  0  0  0  0  0  0
  -11.3895  -22.7921   34.8271 H   0  0  0  0  0  0  0  0  0  0  0  0
  -11.5147  -25.2546   31.5400 H   0  0  0  0  0  0  0  0  0  0  0  0
  1  2  2  0
  2  3  1  0
  2  4  1  0
  4  5  2  0
  5  6  1  0
  6  7  1  0
  7  8  1  0
  8  9  1  0
  9 10  2  0
 10 11  1  0
 11 12  2  0
 12 13  1  0
  6 14  1  0
 14 15  2  0
 15  4  1  0
 13  9  1  0
  3 16  1  0
  5 17  1  0
  7 18  1  0
  7 19  1  0
  8 20  1  0
  8 21  1  0
 10 22  1  0
 11 23  1  0
 13 24  1  0
 14 25  1  0
M  END
>  <Energy>  (210) 
46.08496520848685

>  <compound_id>  (210) 
8157

>  <target_id>  (210) 
1

>  <reference_id>  (210) 
96

>  <inspiration_ids>  (210) 
[35, 96]

>  <energy_score>  (210) 
-22.23648837738517

>  <distance_score>  (210) 
2.2295320863134496

>  <path>  (210) 
/opt/xchem-fragalysis-2/maxwin/BulkDock/SCRATCH/511017/C8157-P96/C8157-P96.minimised.mol

>  <scratch_subdir>  (210) 
/opt/xchem-fragalysis-2/maxwin/BulkDock/SCRATCH/511017/C8157-P96

>  <fragmenstein_runtime>  (210) 
2.261716842651367

>  <fragmenstein_outcome>  (210) 
too moved

>  <fragmenstein_mode>  (210) 
expansion

>  <fragmenstein_error>  (210) 


$$$$
C8159-P35
     RDKit          3D

 35 37  0  0  0  0  0  0  0  0999 V2000
  -13.2274  -29.2595   30.6781 C   0  0  0  0  0  0  0  0  0  0  0  0
  -12.6687  -28.2158   31.4787 O   0  0  0  0  0  0  0  0  0  0  0  0
  -11.3236  -28.3294   31.6326 C   0  0  0  0  0  0  0  0  0  0  0  0
  -10.6801  -29.3400   31.4045 O   0  0  0  0  0  0  0  0  0  0  0  0
  -10.7071  -27.0443   32.1064 C   0  0  0  0  0  0  0  0  0  0  0  0
  -10.4084  -26.8245   33.5382 C   0  0  0  0  0  0  0  0  0  0  0  0
   -9.8378  -25.4373   33.5170 C   0  0  0  0  0  0  0  0  0  0  0  0
   -8.7383  -25.7224   32.5159 C   0  0  0  0  0  0  0  0  0  0  0  0
   -9.3130  -26.7804   31.6017 C   0  0  0  0  0  0  0  0  0  0  0  0
   -9.4994  -26.3142   30.2814 N   0  0  0  0  0  0  0  0  0  0  0  0
   -9.6717  -27.1790   29.2516 C   0  0  0  0  0  0  0  0  0  0  0  0
  -10.3071  -26.6025   28.2786 N   0  0  0  0  0  0  0  0  0  0  0  0
  -10.5599  -25.3653   28.7554 C   0  0  0  0  0  0  0  0  0  0  0  0
  -11.2325  -24.3463   27.9508 C   0  0  0  0  0  0  0  0  0  0  0  0
  -11.6744  -24.5386   26.6820 C   0  0  0  0  0  0  0  0  0  0  0  0
  -11.9626  -23.2469   26.2905 C   0  0  0  0  0  0  0  0  0  0  0  0
  -11.7586  -22.3454   27.2635 N   0  0  0  0  0  0  0  0  0  0  0  0
  -11.4094  -23.0644   28.3059 N   0  0  0  0  0  0  0  0  0  0  0  0
  -10.0970  -25.1385   30.0025 C   0  0  0  0  0  0  0  0  0  0  0  0
  -14.3085  -29.1056   30.6258 H   0  0  0  0  0  0  0  0  0  0  0  0
  -12.8228  -29.2119   29.6619 H   0  0  0  0  0  0  0  0  0  0  0  0
  -13.0353  -30.2420   31.1200 H   0  0  0  0  0  0  0  0  0  0  0  0
  -11.4206  -26.2714   31.7816 H   0  0  0  0  0  0  0  0  0  0  0  0
   -9.5987  -27.3829   33.9701 H   0  0  0  0  0  0  0  0  0  0  0  0
  -11.2513  -27.1823   34.0556 H   0  0  0  0  0  0  0  0  0  0  0  0
   -9.4192  -25.1088   34.4648 H   0  0  0  0  0  0  0  0  0  0  0  0
  -10.5427  -24.6805   33.1575 H   0  0  0  0  0  0  0  0  0  0  0  0
   -7.9083  -26.2005   33.0379 H   0  0  0  0  0  0  0  0  0  0  0  0
   -8.3908  -24.8180   32.0258 H   0  0  0  0  0  0  0  0  0  0  0  0
   -8.6864  -27.6795   31.5840 H   0  0  0  0  0  0  0  0  0  0  0  0
   -9.3854  -28.2231   29.2818 H   0  0  0  0  0  0  0  0  0  0  0  0
  -11.6889  -25.4538   26.1113 H   0  0  0  0  0  0  0  0  0  0  0  0
  -12.2878  -22.9104   25.3143 H   0  0  0  0  0  0  0  0  0  0  0  0
  -11.2125  -22.5994   29.1834 H   0  0  0  0  0  0  0  0  0  0  0  0
  -10.2204  -24.3350   30.7090 H   0  0  0  0  0  0  0  0  0  0  0  0
  1  2  1  0
  2  3  1  0
  3  4  2  0
  3  5  1  0
  5  6  1  0
  6  7  1  0
  7  8  1  0
  8  9  1  0
  9 10  1  0
 10 11  1  0
 11 12  2  0
 12 13  1  0
 13 14  1  0
 14 15  2  0
 15 16  1  0
 16 17  2  0
 17 18  1  0
 13 19  2  0
  9  5  1  0
 19 10  1  0
 18 14  1  0
  1 20  1  0
  1 21  1  0
  1 22  1  0
  5 23  1  0
  6 24  1  0
  6 25  1  0
  7 26  1  0
  7 27  1  0
  8 28  1  0
  8 29  1  0
  9 30  1  0
 11 31  1  0
 15 32  1  0
 16 33  1  0
 18 34  1  0
 19 35  1  0
M  END
>  <Energy>  (211) 
25.814462199027833

>  <compound_id>  (211) 
8159

>  <target_id>  (211) 
1

>  <reference_id>  (211) 
35

>  <inspiration_ids>  (211) 
[35, 96]

>  <energy_score>  (211) 
9.352663710836737

>  <distance_score>  (211) 
3.1750229634126588

>  <path>  (211) 
/opt/xchem-fragalysis-2/maxwin/BulkDock/SCRATCH/511017/C8159-P35/C8159-P35.minimised.mol

>  <scratch_subdir>  (211) 
/opt/xchem-fragalysis-2/maxwin/BulkDock/SCRATCH/511017/C8159-P35

>  <fragmenstein_runtime>  (211) 
10.123717069625854

>  <fragmenstein_outcome>  (211) 
too moved

>  <fragmenstein_mode>  (211) 
expansion

>  <fragmenstein_error>  (211) 


$$$$
C8159-P96
     RDKit          3D

 35 37  0  0  0  0  0  0  0  0999 V2000
  -13.6581  -22.3289   32.1818 C   0  0  0  0  0  0  0  0  0  0  0  0
  -12.3546  -22.5490   32.7148 O   0  0  0  0  0  0  0  0  0  0  0  0
  -11.8408  -23.7837   32.4329 C   0  0  0  0  0  0  0  0  0  0  0  0
  -12.4390  -24.6728   31.8458 O   0  0  0  0  0  0  0  0  0  0  0  0
  -10.4601  -23.8934   33.0496 C   0  0  0  0  0  0  0  0  0  0  0  0
   -9.6310  -25.1917   32.8053 C   0  0  0  0  0  0  0  0  0  0  0  0
   -8.2977  -24.8351   33.4190 C   0  0  0  0  0  0  0  0  0  0  0  0
   -8.2341  -23.3102   33.3475 C   0  0  0  0  0  0  0  0  0  0  0  0
   -9.4865  -22.8464   32.5833 C   0  0  0  0  0  0  0  0  0  0  0  0
   -9.3910  -22.9940   31.1488 N   0  0  0  0  0  0  0  0  0  0  0  0
   -8.4209  -23.7238   30.5432 C   0  0  0  0  0  0  0  0  0  0  0  0
   -8.8416  -24.2878   29.4570 N   0  0  0  0  0  0  0  0  0  0  0  0
  -10.0256  -23.6687   29.2349 C   0  0  0  0  0  0  0  0  0  0  0  0
  -10.8893  -24.0564   28.0767 C   0  0  0  0  0  0  0  0  0  0  0  0
  -10.7854  -25.2213   27.3711 C   0  0  0  0  0  0  0  0  0  0  0  0
  -11.9165  -25.2044   26.5500 C   0  0  0  0  0  0  0  0  0  0  0  0
  -12.6104  -24.0682   26.6456 N   0  0  0  0  0  0  0  0  0  0  0  0
  -11.9156  -23.3567   27.5487 N   0  0  0  0  0  0  0  0  0  0  0  0
  -10.3441  -22.7522   30.2058 C   0  0  0  0  0  0  0  0  0  0  0  0
  -13.9553  -21.3035   32.4171 H   0  0  0  0  0  0  0  0  0  0  0  0
  -13.6293  -22.4440   31.0963 H   0  0  0  0  0  0  0  0  0  0  0  0
  -14.3799  -23.0169   32.6321 H   0  0  0  0  0  0  0  0  0  0  0  0
  -10.5933  -23.6796   34.1121 H   0  0  0  0  0  0  0  0  0  0  0  0
   -9.5715  -25.4487   31.7461 H   0  0  0  0  0  0  0  0  0  0  0  0
   -9.9296  -26.1441   33.2216 H   0  0  0  0  0  0  0  0  0  0  0  0
   -7.4663  -25.3330   32.9182 H   0  0  0  0  0  0  0  0  0  0  0  0
   -8.3001  -25.1553   34.4624 H   0  0  0  0  0  0  0  0  0  0  0  0
   -7.3138  -22.9872   32.8706 H   0  0  0  0  0  0  0  0  0  0  0  0
   -8.2528  -22.9327   34.3731 H   0  0  0  0  0  0  0  0  0  0  0  0
   -9.7651  -21.8120   32.8012 H   0  0  0  0  0  0  0  0  0  0  0  0
   -7.4719  -23.8423   31.0045 H   0  0  0  0  0  0  0  0  0  0  0  0
  -10.0553  -26.0029   27.5122 H   0  0  0  0  0  0  0  0  0  0  0  0
  -12.2726  -25.9741   25.8786 H   0  0  0  0  0  0  0  0  0  0  0  0
  -12.1696  -22.3874   27.7068 H   0  0  0  0  0  0  0  0  0  0  0  0
  -11.1914  -22.0999   30.3526 H   0  0  0  0  0  0  0  0  0  0  0  0
  1  2  1  0
  2  3  1  0
  3  4  2  0
  3  5  1  0
  5  6  1  0
  6  7  1  0
  7  8  1  0
  8  9  1  0
  9 10  1  0
 10 11  1  0
 11 12  2  0
 12 13  1  0
 13 14  1  0
 14 15  2  0
 15 16  1  0
 16 17  2  0
 17 18  1  0
 13 19  2  0
  9  5  1  0
 19 10  1  0
 18 14  1  0
  1 20  1  0
  1 21  1  0
  1 22  1  0
  5 23  1  0
  6 24  1  0
  6 25  1  0
  7 26  1  0
  7 27  1  0
  8 28  1  0
  8 29  1  0
  9 30  1  0
 11 31  1  0
 15 32  1  0
 16 33  1  0
 18 34  1  0
 19 35  1  0
M  END
>  <Energy>  (212) 
21.465071664331475

>  <compound_id>  (212) 
8159

>  <target_id>  (212) 
1

>  <reference_id>  (212) 
96

>  <inspiration_ids>  (212) 
[35, 96]

>  <energy_score>  (212) 
5.003273176143352

>  <distance_score>  (212) 
3.5285110436761173

>  <path>  (212) 
/opt/xchem-fragalysis-2/maxwin/BulkDock/SCRATCH/511017/C8159-P96/C8159-P96.minimised.mol

>  <scratch_subdir>  (212) 
/opt/xchem-fragalysis-2/maxwin/BulkDock/SCRATCH/511017/C8159-P96

>  <fragmenstein_runtime>  (212) 
10.404245138168335

>  <fragmenstein_outcome>  (212) 
too moved

>  <fragmenstein_mode>  (212) 
expansion

>  <fragmenstein_error>  (212) 


$$$$
C8160-P35
     RDKit          3D

 30 32  0  0  0  0  0  0  0  0999 V2000
  -12.0233  -27.8036   30.1149 N   0  0  0  0  0  0  0  0  0  0  0  0
  -11.4587  -27.3807   31.0326 C   0  0  0  0  0  0  0  0  0  0  0  0
  -10.7221  -26.8878   32.1808 C   0  0  0  0  0  0  0  0  0  0  0  0
   -9.2533  -27.2099   32.0184 C   0  0  0  0  0  0  0  0  0  0  0  0
   -8.7161  -26.3902   33.1551 C   0  0  0  0  0  0  0  0  0  0  0  0
   -9.4698  -25.0710   33.1398 C   0  0  0  0  0  0  0  0  0  0  0  0
  -10.7125  -25.3599   32.3597 C   0  0  0  0  0  0  0  0  0  0  0  0
  -10.6476  -24.7071   31.0812 N   0  0  0  0  0  0  0  0  0  0  0  0
   -9.5966  -24.8347   30.2327 C   0  0  0  0  0  0  0  0  0  0  0  0
   -9.9003  -24.4538   29.0329 N   0  0  0  0  0  0  0  0  0  0  0  0
  -11.2340  -24.2692   29.1100 C   0  0  0  0  0  0  0  0  0  0  0  0
  -11.9827  -24.3910   27.8382 C   0  0  0  0  0  0  0  0  0  0  0  0
  -13.2188  -24.9109   27.6220 C   0  0  0  0  0  0  0  0  0  0  0  0
  -13.2812  -25.0031   26.2226 C   0  0  0  0  0  0  0  0  0  0  0  0
  -12.1742  -24.5657   25.6196 N   0  0  0  0  0  0  0  0  0  0  0  0
  -11.3991  -24.1943   26.6403 N   0  0  0  0  0  0  0  0  0  0  0  0
  -11.7252  -24.2748   30.3830 C   0  0  0  0  0  0  0  0  0  0  0  0
  -11.0934  -27.3662   33.0915 H   0  0  0  0  0  0  0  0  0  0  0  0
   -8.8718  -26.9248   31.0461 H   0  0  0  0  0  0  0  0  0  0  0  0
   -8.9365  -28.2452   32.0118 H   0  0  0  0  0  0  0  0  0  0  0  0
   -8.9467  -26.8606   34.1070 H   0  0  0  0  0  0  0  0  0  0  0  0
   -7.6490  -26.3174   33.0705 H   0  0  0  0  0  0  0  0  0  0  0  0
   -8.9239  -24.2655   32.6442 H   0  0  0  0  0  0  0  0  0  0  0  0
   -9.6840  -24.7341   34.1550 H   0  0  0  0  0  0  0  0  0  0  0  0
  -11.5554  -24.8928   32.8481 H   0  0  0  0  0  0  0  0  0  0  0  0
   -8.6162  -25.1645   30.5211 H   0  0  0  0  0  0  0  0  0  0  0  0
  -13.9386  -25.2480   28.3530 H   0  0  0  0  0  0  0  0  0  0  0  0
  -14.0912  -25.3823   25.6136 H   0  0  0  0  0  0  0  0  0  0  0  0
  -10.4539  -23.8789   26.4663 H   0  0  0  0  0  0  0  0  0  0  0  0
  -12.7268  -24.2192   30.7880 H   0  0  0  0  0  0  0  0  0  0  0  0
  1  2  3  0
  2  3  1  0
  3  4  1  0
  4  5  1  0
  5  6  1  0
  6  7  1  0
  7  8  1  0
  8  9  1  0
  9 10  2  0
 10 11  1  0
 11 12  1  0
 12 13  2  0
 13 14  1  0
 14 15  2  0
 15 16  1  0
 11 17  2  0
  7  3  1  0
 17  8  1  0
 16 12  1  0
  3 18  1  0
  4 19  1  0
  4 20  1  0
  5 21  1  0
  5 22  1  0
  6 23  1  0
  6 24  1  0
  7 25  1  0
  9 26  1  0
 13 27  1  0
 14 28  1  0
 16 29  1  0
 17 30  1  0
M  END
>  <Energy>  (213) 
30.707763063471294

>  <compound_id>  (213) 
8160

>  <target_id>  (213) 
1

>  <reference_id>  (213) 
35

>  <inspiration_ids>  (213) 
[35, 96]

>  <energy_score>  (213) 
4.337484699356935

>  <distance_score>  (213) 
2.651921040025626

>  <path>  (213) 
/opt/xchem-fragalysis-2/maxwin/BulkDock/SCRATCH/511017/C8160-P35/C8160-P35.minimised.mol

>  <scratch_subdir>  (213) 
/opt/xchem-fragalysis-2/maxwin/BulkDock/SCRATCH/511017/C8160-P35

>  <fragmenstein_runtime>  (213) 
7.39958381652832

>  <fragmenstein_outcome>  (213) 
too moved

>  <fragmenstein_mode>  (213) 
expansion

>  <fragmenstein_error>  (213) 


$$$$
C8160-P96
     RDKit          3D

 30 32  0  0  0  0  0  0  0  0999 V2000
  -11.1699  -26.3387   30.9263 N   0  0  0  0  0  0  0  0  0  0  0  0
  -10.7377  -25.5144   31.6202 C   0  0  0  0  0  0  0  0  0  0  0  0
  -10.2516  -24.5186   32.5929 C   0  0  0  0  0  0  0  0  0  0  0  0
   -8.9427  -24.9441   33.2574 C   0  0  0  0  0  0  0  0  0  0  0  0
   -8.2970  -23.6450   33.6898 C   0  0  0  0  0  0  0  0  0  0  0  0
   -9.2292  -22.5344   33.2421 C   0  0  0  0  0  0  0  0  0  0  0  0
  -10.0982  -23.0915   32.1598 C   0  0  0  0  0  0  0  0  0  0  0  0
   -9.6024  -23.0240   30.8406 N   0  0  0  0  0  0  0  0  0  0  0  0
   -8.5516  -23.7581   30.3996 C   0  0  0  0  0  0  0  0  0  0  0  0
   -8.8300  -24.2853   29.2447 N   0  0  0  0  0  0  0  0  0  0  0  0
   -9.9720  -23.6421   28.8713 C   0  0  0  0  0  0  0  0  0  0  0  0
  -10.8524  -24.0682   27.7417 C   0  0  0  0  0  0  0  0  0  0  0  0
  -10.8427  -25.3032   27.1677 C   0  0  0  0  0  0  0  0  0  0  0  0
  -12.0357  -25.3209   26.4366 C   0  0  0  0  0  0  0  0  0  0  0  0
  -12.6709  -24.1458   26.4420 N   0  0  0  0  0  0  0  0  0  0  0  0
  -11.8801  -23.3723   27.2015 N   0  0  0  0  0  0  0  0  0  0  0  0
  -10.3923  -22.7139   29.7833 C   0  0  0  0  0  0  0  0  0  0  0  0
  -11.0063  -24.2908   33.3330 H   0  0  0  0  0  0  0  0  0  0  0  0
   -8.2831  -25.4881   32.5722 H   0  0  0  0  0  0  0  0  0  0  0  0
   -9.0867  -25.6130   34.1076 H   0  0  0  0  0  0  0  0  0  0  0  0
   -8.1730  -23.5938   34.7698 H   0  0  0  0  0  0  0  0  0  0  0  0
   -7.3146  -23.5543   33.2243 H   0  0  0  0  0  0  0  0  0  0  0  0
   -8.6939  -21.6343   32.9511 H   0  0  0  0  0  0  0  0  0  0  0  0
   -9.9152  -22.3155   34.0687 H   0  0  0  0  0  0  0  0  0  0  0  0
  -11.0649  -22.5666   32.1669 H   0  0  0  0  0  0  0  0  0  0  0  0
   -7.6911  -23.9266   31.0116 H   0  0  0  0  0  0  0  0  0  0  0  0
  -10.1540  -26.1055   27.3777 H   0  0  0  0  0  0  0  0  0  0  0  0
  -12.4785  -26.1429   25.8899 H   0  0  0  0  0  0  0  0  0  0  0  0
  -12.1047  -22.3840   27.2894 H   0  0  0  0  0  0  0  0  0  0  0  0
  -11.2786  -22.0984   29.8506 H   0  0  0  0  0  0  0  0  0  0  0  0
  1  2  3  0
  2  3  1  0
  3  4  1  0
  4  5  1  0
  5  6  1  0
  6  7  1  0
  7  8  1  0
  8  9  1  0
  9 10  2  0
 10 11  1  0
 11 12  1  0
 12 13  2  0
 13 14  1  0
 14 15  2  0
 15 16  1  0
 11 17  2  0
  7  3  1  0
 17  8  1  0
 16 12  1  0
  3 18  1  0
  4 19  1  0
  4 20  1  0
  5 21  1  0
  5 22  1  0
  6 23  1  0
  6 24  1  0
  7 25  1  0
  9 26  1  0
 13 27  1  0
 14 28  1  0
 16 29  1  0
 17 30  1  0
M  END
>  <Energy>  (214) 
33.804653883682931

>  <compound_id>  (214) 
8160

>  <target_id>  (214) 
1

>  <reference_id>  (214) 
96

>  <inspiration_ids>  (214) 
[35, 96]

>  <energy_score>  (214) 
7.434375519569812

>  <distance_score>  (214) 
2.1381158959275113

>  <path>  (214) 
/opt/xchem-fragalysis-2/maxwin/BulkDock/SCRATCH/511017/C8160-P96/C8160-P96.minimised.mol

>  <scratch_subdir>  (214) 
/opt/xchem-fragalysis-2/maxwin/BulkDock/SCRATCH/511017/C8160-P96

>  <fragmenstein_runtime>  (214) 
6.800934791564941

>  <fragmenstein_outcome>  (214) 
too moved

>  <fragmenstein_mode>  (214) 
expansion

>  <fragmenstein_error>  (214) 


$$$$
C8161-P35
     RDKit          3D

 40 41  0  0  0  0  0  0  0  0999 V2000
  -12.3090  -21.6823   30.3306 C   0  0  0  0  0  0  0  0  0  0  0  0
  -13.5306  -22.4350   30.9259 C   0  0  0  0  0  0  0  0  0  0  0  0
  -13.5454  -22.5054   32.4560 C   0  0  0  0  0  0  0  0  0  0  0  0
  -12.2793  -22.8532   32.9976 N   0  0  0  0  0  0  0  0  0  0  0  0
  -11.0459  -23.4453   32.3294 C   0  0  0  0  0  0  0  0  0  0  0  0
  -10.8325  -23.6759   31.2123 O   0  0  0  0  0  0  0  0  0  0  0  0
  -10.0519  -23.8431   33.3785 C   0  0  0  0  0  0  0  0  0  0  0  0
   -9.8007  -25.2446   32.9629 C   0  0  0  0  0  0  0  0  0  0  0  0
   -8.7471  -25.8242   32.3269 C   0  0  0  0  0  0  0  0  0  0  0  0
   -9.1837  -27.0786   31.9024 C   0  0  0  0  0  0  0  0  0  0  0  0
  -10.4610  -27.2890   32.1964 N   0  0  0  0  0  0  0  0  0  0  0  0
  -10.8143  -26.1296   32.7552 N   0  0  0  0  0  0  0  0  0  0  0  0
  -13.6080  -23.6400   30.1406 N   0  0  0  0  0  0  0  0  0  0  0  0
  -14.2790  -25.0074   30.4525 C   0  0  0  0  0  0  0  0  0  0  0  0
  -14.9371  -25.3389   31.3612 O   0  0  0  0  0  0  0  0  0  0  0  0
  -13.9087  -25.9738   29.2358 C   0  0  0  0  0  0  0  0  0  0  0  0
  -14.0821  -27.3500   29.5713 O   0  0  0  0  0  0  0  0  0  0  0  0
  -12.5071  -25.6846   28.7396 C   0  0  0  0  0  0  0  0  0  0  0  0
  -11.3200  -26.2748   29.1067 C   0  0  0  0  0  0  0  0  0  0  0  0
  -10.3629  -25.3536   28.8027 N   0  0  0  0  0  0  0  0  0  0  0  0
  -10.9569  -24.3601   28.0807 C   0  0  0  0  0  0  0  0  0  0  0  0
  -12.2533  -24.5430   27.9903 N   0  0  0  0  0  0  0  0  0  0  0  0
  -11.6247  -22.3195   29.7704 H   0  0  0  0  0  0  0  0  0  0  0  0
  -12.5777  -20.9755   29.5489 H   0  0  0  0  0  0  0  0  0  0  0  0
  -11.7253  -21.1724   31.0977 H   0  0  0  0  0  0  0  0  0  0  0  0
  -14.4522  -21.8952   30.7362 H   0  0  0  0  0  0  0  0  0  0  0  0
  -13.8025  -21.5289   32.8792 H   0  0  0  0  0  0  0  0  0  0  0  0
  -14.2822  -23.2265   32.8195 H   0  0  0  0  0  0  0  0  0  0  0  0
  -12.0943  -22.7122   33.9824 H   0  0  0  0  0  0  0  0  0  0  0  0
   -9.1926  -23.1816   33.2763 H   0  0  0  0  0  0  0  0  0  0  0  0
  -10.4223  -23.7530   34.3952 H   0  0  0  0  0  0  0  0  0  0  0  0
   -7.7976  -25.3691   32.1553 H   0  0  0  0  0  0  0  0  0  0  0  0
   -8.6320  -27.8599   31.3983 H   0  0  0  0  0  0  0  0  0  0  0  0
  -11.8051  -25.9410   32.8641 H   0  0  0  0  0  0  0  0  0  0  0  0
  -13.1739  -23.6757   29.2172 H   0  0  0  0  0  0  0  0  0  0  0  0
  -14.6194  -25.7479   28.4325 H   0  0  0  0  0  0  0  0  0  0  0  0
  -13.6724  -27.4416   30.4516 H   0  0  0  0  0  0  0  0  0  0  0  0
  -11.1028  -27.1554   29.6926 H   0  0  0  0  0  0  0  0  0  0  0  0
   -9.4032  -25.3862   29.1145 H   0  0  0  0  0  0  0  0  0  0  0  0
  -10.4115  -23.5168   27.6861 H   0  0  0  0  0  0  0  0  0  0  0  0
  1  2  1  0
  2  3  1  0
  3  4  1  0
  4  5  1  0
  5  6  2  0
  5  7  1  0
  7  8  1  0
  8  9  2  0
  9 10  1  0
 10 11  2  0
 11 12  1  0
  2 13  1  0
 13 14  1  0
 14 15  2  0
 14 16  1  0
 16 17  1  0
 16 18  1  0
 18 19  2  0
 19 20  1  0
 20 21  1  0
 21 22  2  0
 12  8  1  0
 22 18  1  0
  1 23  1  0
  1 24  1  0
  1 25  1  0
  2 26  1  0
  3 27  1  0
  3 28  1  0
  4 29  1  0
  7 30  1  0
  7 31  1  0
  9 32  1  0
 10 33  1  0
 12 34  1  0
 13 35  1  0
 16 36  1  0
 17 37  1  0
 19 38  1  0
 20 39  1  0
 21 40  1  0
M  END
>  <Energy>  (215) 
136.60005869740158

>  <compound_id>  (215) 
8161

>  <target_id>  (215) 
1

>  <reference_id>  (215) 
35

>  <inspiration_ids>  (215) 
[35, 96]

>  <energy_score>  (215) 
22.070469356919546

>  <distance_score>  (215) 
2.9144106433873906

>  <path>  (215) 
/opt/xchem-fragalysis-2/maxwin/BulkDock/SCRATCH/511017/C8161-P35/C8161-P35.minimised.mol

>  <scratch_subdir>  (215) 
/opt/xchem-fragalysis-2/maxwin/BulkDock/SCRATCH/511017/C8161-P35

>  <fragmenstein_runtime>  (215) 
4.934450387954712

>  <fragmenstein_outcome>  (215) 
too moved

>  <fragmenstein_mode>  (215) 
expansion

>  <fragmenstein_error>  (215) 


$$$$
C8161-P96
     RDKit          3D

 40 41  0  0  0  0  0  0  0  0999 V2000
  -11.4529  -20.4564   29.2644 C   0  0  0  0  0  0  0  0  0  0  0  0
  -11.8982  -20.9702   30.6085 C   0  0  0  0  0  0  0  0  0  0  0  0
  -10.9505  -20.3287   31.6167 C   0  0  0  0  0  0  0  0  0  0  0  0
  -10.6177  -21.2052   32.6340 N   0  0  0  0  0  0  0  0  0  0  0  0
  -11.3981  -21.6260   33.8734 C   0  0  0  0  0  0  0  0  0  0  0  0
  -12.4154  -21.2498   34.2857 O   0  0  0  0  0  0  0  0  0  0  0  0
  -10.6376  -22.7714   34.4845 C   0  0  0  0  0  0  0  0  0  0  0  0
   -9.7815  -23.6003   33.5910 C   0  0  0  0  0  0  0  0  0  0  0  0
  -10.0343  -24.2080   32.3886 C   0  0  0  0  0  0  0  0  0  0  0  0
   -8.9004  -24.9487   32.0947 C   0  0  0  0  0  0  0  0  0  0  0  0
   -7.9850  -24.8422   33.0503 N   0  0  0  0  0  0  0  0  0  0  0  0
   -8.5134  -23.9731   33.9173 N   0  0  0  0  0  0  0  0  0  0  0  0
  -12.0430  -22.3826   30.3935 N   0  0  0  0  0  0  0  0  0  0  0  0
  -13.0285  -23.4074   31.0312 C   0  0  0  0  0  0  0  0  0  0  0  0
  -13.8193  -23.2699   31.8851 O   0  0  0  0  0  0  0  0  0  0  0  0
  -12.9335  -24.7945   30.2628 C   0  0  0  0  0  0  0  0  0  0  0  0
  -12.8647  -25.8548   31.2250 O   0  0  0  0  0  0  0  0  0  0  0  0
  -11.8260  -24.8642   29.2513 C   0  0  0  0  0  0  0  0  0  0  0  0
  -10.7262  -25.6847   29.2125 C   0  0  0  0  0  0  0  0  0  0  0  0
   -9.8927  -25.1363   28.2860 N   0  0  0  0  0  0  0  0  0  0  0  0
  -10.5492  -24.0932   27.7046 C   0  0  0  0  0  0  0  0  0  0  0  0
  -11.7189  -23.9054   28.2622 N   0  0  0  0  0  0  0  0  0  0  0  0
  -10.3670  -20.4525   29.1509 H   0  0  0  0  0  0  0  0  0  0  0  0
  -11.8042  -21.0756   28.4411 H   0  0  0  0  0  0  0  0  0  0  0  0
  -11.8374  -19.4530   29.1568 H   0  0  0  0  0  0  0  0  0  0  0  0
  -12.9047  -20.6646   30.8907 H   0  0  0  0  0  0  0  0  0  0  0  0
  -10.0482  -19.9024   31.1942 H   0  0  0  0  0  0  0  0  0  0  0  0
  -11.4542  -19.5071   32.1228 H   0  0  0  0  0  0  0  0  0  0  0  0
   -9.7275  -21.6810   32.6194 H   0  0  0  0  0  0  0  0  0  0  0  0
  -11.4649  -23.3772   34.8129 H   0  0  0  0  0  0  0  0  0  0  0  0
  -10.0649  -22.4615   35.3518 H   0  0  0  0  0  0  0  0  0  0  0  0
  -10.9408  -24.1666   31.8367 H   0  0  0  0  0  0  0  0  0  0  0  0
   -8.6955  -25.5799   31.2462 H   0  0  0  0  0  0  0  0  0  0  0  0
   -7.9545  -23.7041   34.7212 H   0  0  0  0  0  0  0  0  0  0  0  0
  -11.5543  -22.8192   29.6171 H   0  0  0  0  0  0  0  0  0  0  0  0
  -13.8723  -24.9268   29.7218 H   0  0  0  0  0  0  0  0  0  0  0  0
  -13.5601  -25.6359   31.8750 H   0  0  0  0  0  0  0  0  0  0  0  0
  -10.4609  -26.5300   29.8256 H   0  0  0  0  0  0  0  0  0  0  0  0
   -8.9613  -25.4569   28.0584 H   0  0  0  0  0  0  0  0  0  0  0  0
  -10.1349  -23.5045   26.8964 H   0  0  0  0  0  0  0  0  0  0  0  0
  1  2  1  0
  2  3  1  0
  3  4  1  0
  4  5  1  0
  5  6  2  0
  5  7  1  0
  7  8  1  0
  8  9  2  0
  9 10  1  0
 10 11  2  0
 11 12  1  0
  2 13  1  0
 13 14  1  0
 14 15  2  0
 14 16  1  0
 16 17  1  0
 16 18  1  0
 18 19  2  0
 19 20  1  0
 20 21  1  0
 21 22  2  0
 12  8  1  0
 22 18  1  0
  1 23  1  0
  1 24  1  0
  1 25  1  0
  2 26  1  0
  3 27  1  0
  3 28  1  0
  4 29  1  0
  7 30  1  0
  7 31  1  0
  9 32  1  0
 10 33  1  0
 12 34  1  0
 13 35  1  0
 16 36  1  0
 17 37  1  0
 19 38  1  0
 20 39  1  0
 21 40  1  0
M  END
>  <Energy>  (216) 
135.69721624183506

>  <compound_id>  (216) 
8161

>  <target_id>  (216) 
1

>  <reference_id>  (216) 
96

>  <inspiration_ids>  (216) 
[35, 96]

>  <energy_score>  (216) 
21.167626901355135

>  <distance_score>  (216) 
2.1271991651517266

>  <path>  (216) 
/opt/xchem-fragalysis-2/maxwin/BulkDock/SCRATCH/511017/C8161-P96/C8161-P96.minimised.mol

>  <scratch_subdir>  (216) 
/opt/xchem-fragalysis-2/maxwin/BulkDock/SCRATCH/511017/C8161-P96

>  <fragmenstein_runtime>  (216) 
5.336484670639038

>  <fragmenstein_outcome>  (216) 
too moved

>  <fragmenstein_mode>  (216) 
expansion

>  <fragmenstein_error>  (216) 


$$$$
C8163-P35
     RDKit          3D

 33 34  0  0  0  0  0  0  0  0999 V2000
  -12.2996  -26.2294   25.6878 C   0  0  0  0  0  0  0  0  0  0  0  0
  -12.5698  -25.3871   26.9232 C   0  0  0  0  0  0  0  0  0  0  0  0
  -12.6066  -23.8706   26.5713 C   0  0  0  0  0  0  0  0  0  0  0  0
  -12.0625  -23.0807   27.7405 C   0  0  0  0  0  0  0  0  0  0  0  0
  -11.1355  -22.3867   27.5463 O   0  0  0  0  0  0  0  0  0  0  0  0
  -12.8010  -23.4251   29.0582 N   0  0  0  0  0  0  0  0  0  0  0  0
  -12.5172  -23.0895   30.3314 N   0  0  0  0  0  0  0  0  0  0  0  0
  -11.5837  -22.0026   30.8934 C   0  0  0  0  0  0  0  0  0  0  0  0
  -10.9723  -21.1751   30.3454 O   0  0  0  0  0  0  0  0  0  0  0  0
  -11.4108  -22.1533   32.3316 C   0  0  0  0  0  0  0  0  0  0  0  0
  -11.4259  -23.4031   32.9276 C   0  0  0  0  0  0  0  0  0  0  0  0
  -10.2556  -23.4539   33.7213 C   0  0  0  0  0  0  0  0  0  0  0  0
   -9.7131  -22.2488   33.8616 N   0  0  0  0  0  0  0  0  0  0  0  0
  -10.4557  -21.4583   33.0416 N   0  0  0  0  0  0  0  0  0  0  0  0
  -11.7038  -25.7987   28.0423 N   0  0  0  0  0  0  0  0  0  0  0  0
  -10.4991  -25.2708   28.4310 C   0  0  0  0  0  0  0  0  0  0  0  0
  -10.2391  -25.7603   29.6815 C   0  0  0  0  0  0  0  0  0  0  0  0
  -11.2884  -26.5234   30.0971 N   0  0  0  0  0  0  0  0  0  0  0  0
  -12.1487  -26.5266   29.0991 C   0  0  0  0  0  0  0  0  0  0  0  0
  -11.4869  -25.8337   25.0820 H   0  0  0  0  0  0  0  0  0  0  0  0
  -13.2038  -26.2573   25.0623 H   0  0  0  0  0  0  0  0  0  0  0  0
  -12.0438  -27.2809   25.9477 H   0  0  0  0  0  0  0  0  0  0  0  0
  -13.5767  -25.6581   27.2660 H   0  0  0  0  0  0  0  0  0  0  0  0
  -13.5760  -23.5878   26.1308 H   0  0  0  0  0  0  0  0  0  0  0  0
  -11.8791  -23.7137   25.7822 H   0  0  0  0  0  0  0  0  0  0  0  0
  -13.5127  -24.1264   28.8745 H   0  0  0  0  0  0  0  0  0  0  0  0
  -12.9556  -23.5953   31.1048 H   0  0  0  0  0  0  0  0  0  0  0  0
  -11.9050  -24.3062   32.5880 H   0  0  0  0  0  0  0  0  0  0  0  0
   -9.7772  -24.3089   34.1941 H   0  0  0  0  0  0  0  0  0  0  0  0
  -10.0898  -20.5364   32.8205 H   0  0  0  0  0  0  0  0  0  0  0  0
  -10.0011  -24.5046   27.8781 H   0  0  0  0  0  0  0  0  0  0  0  0
   -9.3955  -25.5203   30.3405 H   0  0  0  0  0  0  0  0  0  0  0  0
  -13.1275  -26.9923   29.1065 H   0  0  0  0  0  0  0  0  0  0  0  0
  1  2  1  0
  2  3  1  0
  3  4  1  0
  4  5  2  0
  4  6  1  0
  6  7  1  0
  7  8  1  0
  8  9  2  0
  8 10  1  0
 10 11  2  0
 11 12  1  0
 12 13  2  0
 13 14  1  0
  2 15  1  0
 15 16  1  0
 16 17  2  0
 17 18  1  0
 18 19  2  0
 14 10  1  0
 19 15  1  0
  1 20  1  0
  1 21  1  0
  1 22  1  0
  2 23  1  0
  3 24  1  0
  3 25  1  0
  6 26  1  0
  7 27  1  0
 11 28  1  0
 12 29  1  0
 14 30  1  0
 16 31  1  0
 17 32  1  0
 19 33  1  0
M  END
>  <Energy>  (217) 
93.621295648516849

>  <compound_id>  (217) 
8163

>  <target_id>  (217) 
1

>  <reference_id>  (217) 
35

>  <inspiration_ids>  (217) 
[35, 96]

>  <energy_score>  (217) 
61.051593309120676

>  <distance_score>  (217) 
3.575457410038732

>  <path>  (217) 
/opt/xchem-fragalysis-2/maxwin/BulkDock/SCRATCH/511017/C8163-P35/C8163-P35.minimised.mol

>  <scratch_subdir>  (217) 
/opt/xchem-fragalysis-2/maxwin/BulkDock/SCRATCH/511017/C8163-P35

>  <fragmenstein_runtime>  (217) 
3.591374158859253

>  <fragmenstein_outcome>  (217) 
too moved

>  <fragmenstein_mode>  (217) 
expansion

>  <fragmenstein_error>  (217) 


$$$$
C8163-P96
     RDKit          3D

 33 34  0  0  0  0  0  0  0  0999 V2000
  -11.0809  -26.5021   28.9320 C   0  0  0  0  0  0  0  0  0  0  0  0
   -9.9953  -25.6103   28.2713 C   0  0  0  0  0  0  0  0  0  0  0  0
   -8.9523  -25.0628   29.2898 C   0  0  0  0  0  0  0  0  0  0  0  0
   -9.5576  -24.9458   30.6598 C   0  0  0  0  0  0  0  0  0  0  0  0
   -9.4195  -25.7100   31.5223 O   0  0  0  0  0  0  0  0  0  0  0  0
  -10.4316  -23.6870   30.5762 N   0  0  0  0  0  0  0  0  0  0  0  0
  -11.1704  -23.1119   31.4765 N   0  0  0  0  0  0  0  0  0  0  0  0
  -10.9116  -22.8608   32.9603 C   0  0  0  0  0  0  0  0  0  0  0  0
  -10.0298  -23.1940   33.6379 O   0  0  0  0  0  0  0  0  0  0  0  0
  -12.0497  -22.1435   33.4058 C   0  0  0  0  0  0  0  0  0  0  0  0
  -13.3532  -22.1477   32.9487 C   0  0  0  0  0  0  0  0  0  0  0  0
  -13.9226  -21.0409   33.5601 C   0  0  0  0  0  0  0  0  0  0  0  0
  -13.0664  -20.4252   34.3718 N   0  0  0  0  0  0  0  0  0  0  0  0
  -12.0085  -21.2506   34.4178 N   0  0  0  0  0  0  0  0  0  0  0  0
  -10.6537  -24.5684   27.5125 N   0  0  0  0  0  0  0  0  0  0  0  0
  -11.7787  -24.7398   26.7714 C   0  0  0  0  0  0  0  0  0  0  0  0
  -12.1823  -23.4678   26.4830 C   0  0  0  0  0  0  0  0  0  0  0  0
  -11.3236  -22.5547   27.0092 N   0  0  0  0  0  0  0  0  0  0  0  0
  -10.3318  -23.2548   27.4653 C   0  0  0  0  0  0  0  0  0  0  0  0
  -11.6669  -27.0484   28.1886 H   0  0  0  0  0  0  0  0  0  0  0  0
  -11.7988  -25.9059   29.5083 H   0  0  0  0  0  0  0  0  0  0  0  0
  -10.6713  -27.2548   29.5995 H   0  0  0  0  0  0  0  0  0  0  0  0
   -9.4589  -26.1931   27.5144 H   0  0  0  0  0  0  0  0  0  0  0  0
   -8.0743  -25.6883   29.3473 H   0  0  0  0  0  0  0  0  0  0  0  0
   -8.5172  -24.0998   29.0326 H   0  0  0  0  0  0  0  0  0  0  0  0
  -10.2496  -23.2079   29.7087 H   0  0  0  0  0  0  0  0  0  0  0  0
  -11.9979  -22.6054   31.1878 H   0  0  0  0  0  0  0  0  0  0  0  0
  -13.8175  -22.7974   32.2198 H   0  0  0  0  0  0  0  0  0  0  0  0
  -14.9187  -20.6337   33.4402 H   0  0  0  0  0  0  0  0  0  0  0  0
  -11.2853  -21.1088   35.1212 H   0  0  0  0  0  0  0  0  0  0  0  0
  -12.2147  -25.6986   26.5294 H   0  0  0  0  0  0  0  0  0  0  0  0
  -13.0473  -23.1646   25.9073 H   0  0  0  0  0  0  0  0  0  0  0  0
   -9.4062  -22.8175   27.8066 H   0  0  0  0  0  0  0  0  0  0  0  0
  1  2  1  0
  2  3  1  0
  3  4  1  0
  4  5  2  0
  4  6  1  0
  6  7  1  0
  7  8  1  0
  8  9  2  0
  8 10  1  0
 10 11  2  0
 11 12  1  0
 12 13  2  0
 13 14  1  0
  2 15  1  0
 15 16  1  0
 16 17  2  0
 17 18  1  0
 18 19  2  0
 14 10  1  0
 19 15  1  0
  1 20  1  0
  1 21  1  0
  1 22  1  0
  2 23  1  0
  3 24  1  0
  3 25  1  0
  6 26  1  0
  7 27  1  0
 11 28  1  0
 12 29  1  0
 14 30  1  0
 16 31  1  0
 17 32  1  0
 19 33  1  0
M  END
>  <Energy>  (218) 
72.180737543269643

>  <compound_id>  (218) 
8163

>  <target_id>  (218) 
1

>  <reference_id>  (218) 
96

>  <inspiration_ids>  (218) 
[35, 96]

>  <energy_score>  (218) 
39.61103520387388

>  <distance_score>  (218) 
3.879600505908399

>  <path>  (218) 
/opt/xchem-fragalysis-2/maxwin/BulkDock/SCRATCH/511017/C8163-P96/C8163-P96.minimised.mol

>  <scratch_subdir>  (218) 
/opt/xchem-fragalysis-2/maxwin/BulkDock/SCRATCH/511017/C8163-P96

>  <fragmenstein_runtime>  (218) 
7.767864227294922

>  <fragmenstein_outcome>  (218) 
too moved

>  <fragmenstein_mode>  (218) 
expansion

>  <fragmenstein_error>  (218) 


$$$$
C8164-P35
     RDKit          3D

 46 47  0  0  0  0  0  0  0  0999 V2000
  -11.8719  -22.9678   30.2120 C   0  0  0  0  0  0  0  0  0  0  0  0
  -13.1483  -23.6298   30.7880 C   0  0  0  0  0  0  0  0  0  0  0  0
  -14.0538  -22.6344   31.5535 C   0  0  0  0  0  0  0  0  0  0  0  0
  -13.1947  -21.8516   32.4315 N   0  0  0  0  0  0  0  0  0  0  0  0
  -13.5399  -20.9790   33.6482 C   0  0  0  0  0  0  0  0  0  0  0  0
  -14.5715  -20.6848   34.0961 O   0  0  0  0  0  0  0  0  0  0  0  0
  -12.1549  -20.5659   34.2161 C   0  0  0  0  0  0  0  0  0  0  0  0
  -11.3208  -21.6844   34.8663 C   0  0  0  0  0  0  0  0  0  0  0  0
  -10.7235  -22.6873   33.9356 C   0  0  0  0  0  0  0  0  0  0  0  0
  -11.2602  -23.7535   33.2631 C   0  0  0  0  0  0  0  0  0  0  0  0
  -10.2750  -24.4412   32.5929 C   0  0  0  0  0  0  0  0  0  0  0  0
   -9.1651  -23.7516   32.6961 N   0  0  0  0  0  0  0  0  0  0  0  0
   -9.4339  -22.7275   33.5344 N   0  0  0  0  0  0  0  0  0  0  0  0
  -13.5709  -24.4550   29.7074 N   0  0  0  0  0  0  0  0  0  0  0  0
  -13.8718  -25.9859   29.6594 C   0  0  0  0  0  0  0  0  0  0  0  0
  -13.8931  -26.7817   30.5174 O   0  0  0  0  0  0  0  0  0  0  0  0
  -14.0545  -26.3489   28.1467 C   0  0  0  0  0  0  0  0  0  0  0  0
  -14.0302  -27.7298   27.8615 O   0  0  0  0  0  0  0  0  0  0  0  0
  -12.8386  -25.7528   27.4689 C   0  0  0  0  0  0  0  0  0  0  0  0
  -11.5124  -25.7073   27.8800 C   0  0  0  0  0  0  0  0  0  0  0  0
  -10.8841  -24.6244   27.3280 N   0  0  0  0  0  0  0  0  0  0  0  0
  -11.7546  -24.1102   26.4917 C   0  0  0  0  0  0  0  0  0  0  0  0
  -12.8996  -24.8483   26.4429 N   0  0  0  0  0  0  0  0  0  0  0  0
  -13.9773  -24.6931   25.4968 C   0  0  0  0  0  0  0  0  0  0  0  0
  -11.1712  -23.7392   29.8782 H   0  0  0  0  0  0  0  0  0  0  0  0
  -11.3142  -22.3053   30.8682 H   0  0  0  0  0  0  0  0  0  0  0  0
  -12.1265  -22.3672   29.3292 H   0  0  0  0  0  0  0  0  0  0  0  0
  -12.8545  -24.3946   31.4955 H   0  0  0  0  0  0  0  0  0  0  0  0
  -14.5541  -21.9230   30.9112 H   0  0  0  0  0  0  0  0  0  0  0  0
  -14.8080  -23.1493   32.1558 H   0  0  0  0  0  0  0  0  0  0  0  0
  -12.1998  -21.9662   32.3733 H   0  0  0  0  0  0  0  0  0  0  0  0
  -12.3405  -19.7807   34.9581 H   0  0  0  0  0  0  0  0  0  0  0  0
  -11.5722  -20.0944   33.4179 H   0  0  0  0  0  0  0  0  0  0  0  0
  -11.9457  -22.2176   35.5922 H   0  0  0  0  0  0  0  0  0  0  0  0
  -10.5114  -21.2170   35.4417 H   0  0  0  0  0  0  0  0  0  0  0  0
  -12.2926  -23.9842   33.2089 H   0  0  0  0  0  0  0  0  0  0  0  0
  -10.3208  -25.3382   31.9899 H   0  0  0  0  0  0  0  0  0  0  0  0
   -8.6935  -22.0611   33.7242 H   0  0  0  0  0  0  0  0  0  0  0  0
  -13.7189  -24.0537   28.7959 H   0  0  0  0  0  0  0  0  0  0  0  0
  -15.0020  -25.9279   27.8035 H   0  0  0  0  0  0  0  0  0  0  0  0
  -13.7574  -28.1579   28.6971 H   0  0  0  0  0  0  0  0  0  0  0  0
  -11.0346  -26.2876   28.6614 H   0  0  0  0  0  0  0  0  0  0  0  0
  -11.6133  -23.2369   25.8738 H   0  0  0  0  0  0  0  0  0  0  0  0
  -13.9804  -25.5726   24.8483 H   0  0  0  0  0  0  0  0  0  0  0  0
  -14.9343  -24.6458   26.0150 H   0  0  0  0  0  0  0  0  0  0  0  0
  -13.8280  -23.7831   24.9117 H   0  0  0  0  0  0  0  0  0  0  0  0
  1  2  1  0
  2  3  1  0
  3  4  1  0
  4  5  1  0
  5  6  2  0
  5  7  1  0
  7  8  1  0
  8  9  1  0
  9 10  2  0
 10 11  1  0
 11 12  2  0
 12 13  1  0
  2 14  1  0
 14 15  1  0
 15 16  2  0
 15 17  1  0
 17 18  1  0
 17 19  1  0
 19 20  2  0
 20 21  1  0
 21 22  2  0
 22 23  1  0
 23 24  1  0
 13  9  1  0
 23 19  1  0
  1 25  1  0
  1 26  1  0
  1 27  1  0
  2 28  1  0
  3 29  1  0
  3 30  1  0
  4 31  1  0
  7 32  1  0
  7 33  1  0
  8 34  1  0
  8 35  1  0
 10 36  1  0
 11 37  1  0
 13 38  1  0
 14 39  1  0
 17 40  1  0
 18 41  1  0
 20 42  1  0
 22 43  1  0
 24 44  1  0
 24 45  1  0
 24 46  1  0
M  END
>  <Energy>  (219) 
107.63444870922294

>  <compound_id>  (219) 
8164

>  <target_id>  (219) 
1

>  <reference_id>  (219) 
35

>  <inspiration_ids>  (219) 
[35, 96]

>  <energy_score>  (219) 
45.137516759784205

>  <distance_score>  (219) 
2.6242427197340437

>  <path>  (219) 
/opt/xchem-fragalysis-2/maxwin/BulkDock/SCRATCH/511017/C8164-P35/C8164-P35.minimised.mol

>  <scratch_subdir>  (219) 
/opt/xchem-fragalysis-2/maxwin/BulkDock/SCRATCH/511017/C8164-P35

>  <fragmenstein_runtime>  (219) 
11.165812015533447

>  <fragmenstein_outcome>  (219) 
too moved

>  <fragmenstein_mode>  (219) 
expansion

>  <fragmenstein_error>  (219) 


$$$$
C8164-P96
     RDKit          3D

 46 47  0  0  0  0  0  0  0  0999 V2000
  -10.3280  -23.7301   30.2177 C   0  0  0  0  0  0  0  0  0  0  0  0
  -11.8362  -23.7658   30.4403 C   0  0  0  0  0  0  0  0  0  0  0  0
  -12.4080  -22.3808   30.1593 C   0  0  0  0  0  0  0  0  0  0  0  0
  -12.4760  -21.6560   31.3704 N   0  0  0  0  0  0  0  0  0  0  0  0
  -13.3566  -21.8714   32.6186 C   0  0  0  0  0  0  0  0  0  0  0  0
  -14.2173  -22.6323   32.8135 O   0  0  0  0  0  0  0  0  0  0  0  0
  -12.8317  -20.9429   33.6764 C   0  0  0  0  0  0  0  0  0  0  0  0
  -11.3047  -20.9276   33.8357 C   0  0  0  0  0  0  0  0  0  0  0  0
  -10.4983  -22.1335   33.4555 C   0  0  0  0  0  0  0  0  0  0  0  0
  -10.8363  -23.4473   33.3776 C   0  0  0  0  0  0  0  0  0  0  0  0
   -9.6681  -24.1682   33.0930 C   0  0  0  0  0  0  0  0  0  0  0  0
   -8.6389  -23.3540   32.9290 N   0  0  0  0  0  0  0  0  0  0  0  0
   -9.1764  -22.1405   33.0875 N   0  0  0  0  0  0  0  0  0  0  0  0
  -12.3567  -24.6846   29.5083 N   0  0  0  0  0  0  0  0  0  0  0  0
  -12.4006  -26.2364   29.5389 C   0  0  0  0  0  0  0  0  0  0  0  0
  -12.0821  -26.9863   30.3762 O   0  0  0  0  0  0  0  0  0  0  0  0
  -12.8845  -26.6453   28.1077 C   0  0  0  0  0  0  0  0  0  0  0  0
  -12.6032  -27.9989   27.8253 O   0  0  0  0  0  0  0  0  0  0  0  0
  -12.0472  -25.7670   27.1887 C   0  0  0  0  0  0  0  0  0  0  0  0
  -10.6882  -25.4903   27.2598 C   0  0  0  0  0  0  0  0  0  0  0  0
  -10.4284  -24.2290   26.7990 N   0  0  0  0  0  0  0  0  0  0  0  0
  -11.5667  -23.7823   26.3302 C   0  0  0  0  0  0  0  0  0  0  0  0
  -12.5463  -24.7294   26.4351 N   0  0  0  0  0  0  0  0  0  0  0  0
  -13.8883  -24.6129   25.9276 C   0  0  0  0  0  0  0  0  0  0  0  0
   -9.8543  -24.6854   30.4632 H   0  0  0  0  0  0  0  0  0  0  0  0
  -10.0879  -23.5296   29.1699 H   0  0  0  0  0  0  0  0  0  0  0  0
   -9.8583  -22.9124   30.7510 H   0  0  0  0  0  0  0  0  0  0  0  0
  -12.1101  -24.1647   31.4124 H   0  0  0  0  0  0  0  0  0  0  0  0
  -11.8473  -21.8104   29.4128 H   0  0  0  0  0  0  0  0  0  0  0  0
  -13.4256  -22.5035   29.8280 H   0  0  0  0  0  0  0  0  0  0  0  0
  -11.8792  -20.8531   31.5129 H   0  0  0  0  0  0  0  0  0  0  0  0
  -13.2748  -21.2856   34.6153 H   0  0  0  0  0  0  0  0  0  0  0  0
  -13.2162  -19.9328   33.4991 H   0  0  0  0  0  0  0  0  0  0  0  0
  -11.1470  -20.7065   34.8925 H   0  0  0  0  0  0  0  0  0  0  0  0
  -10.9367  -20.0762   33.2536 H   0  0  0  0  0  0  0  0  0  0  0  0
  -11.8371  -23.7971   33.5049 H   0  0  0  0  0  0  0  0  0  0  0  0
   -9.5159  -25.2315   32.9615 H   0  0  0  0  0  0  0  0  0  0  0  0
   -8.5470  -21.3533   33.0046 H   0  0  0  0  0  0  0  0  0  0  0  0
  -12.7844  -24.3528   28.6608 H   0  0  0  0  0  0  0  0  0  0  0  0
  -13.9597  -26.4681   28.0265 H   0  0  0  0  0  0  0  0  0  0  0  0
  -12.5787  -28.4490   28.6927 H   0  0  0  0  0  0  0  0  0  0  0  0
   -9.9244  -26.0504   27.7820 H   0  0  0  0  0  0  0  0  0  0  0  0
  -11.7229  -22.8129   25.8713 H   0  0  0  0  0  0  0  0  0  0  0  0
  -13.9758  -23.7021   25.3304 H   0  0  0  0  0  0  0  0  0  0  0  0
  -14.0922  -25.4900   25.3084 H   0  0  0  0  0  0  0  0  0  0  0  0
  -14.5842  -24.5780   26.7647 H   0  0  0  0  0  0  0  0  0  0  0  0
  1  2  1  0
  2  3  1  0
  3  4  1  0
  4  5  1  0
  5  6  2  0
  5  7  1  0
  7  8  1  0
  8  9  1  0
  9 10  2  0
 10 11  1  0
 11 12  2  0
 12 13  1  0
  2 14  1  0
 14 15  1  0
 15 16  2  0
 15 17  1  0
 17 18  1  0
 17 19  1  0
 19 20  2  0
 20 21  1  0
 21 22  2  0
 22 23  1  0
 23 24  1  0
 13  9  1  0
 23 19  1  0
  1 25  1  0
  1 26  1  0
  1 27  1  0
  2 28  1  0
  3 29  1  0
  3 30  1  0
  4 31  1  0
  7 32  1  0
  7 33  1  0
  8 34  1  0
  8 35  1  0
 10 36  1  0
 11 37  1  0
 13 38  1  0
 14 39  1  0
 17 40  1  0
 18 41  1  0
 20 42  1  0
 22 43  1  0
 24 44  1  0
 24 45  1  0
 24 46  1  0
M  END
>  <Energy>  (220) 
107.86876310513466

>  <compound_id>  (220) 
8164

>  <target_id>  (220) 
1

>  <reference_id>  (220) 
96

>  <inspiration_ids>  (220) 
[35, 96]

>  <energy_score>  (220) 
45.371831155698885

>  <distance_score>  (220) 
2.439565261373169

>  <path>  (220) 
/opt/xchem-fragalysis-2/maxwin/BulkDock/SCRATCH/511017/C8164-P96/C8164-P96.minimised.mol

>  <scratch_subdir>  (220) 
/opt/xchem-fragalysis-2/maxwin/BulkDock/SCRATCH/511017/C8164-P96

>  <fragmenstein_runtime>  (220) 
5.084803104400635

>  <fragmenstein_outcome>  (220) 
too moved

>  <fragmenstein_mode>  (220) 
expansion

>  <fragmenstein_error>  (220) 


$$$$
C8165-P35
     RDKit          3D

 20 21  0  0  0  0  0  0  0  0999 V2000
   -8.2738  -29.0413   31.5487 O   0  0  0  0  0  0  0  0  0  0  0  0
   -9.4293  -28.7422   30.7991 C   0  0  0  0  0  0  0  0  0  0  0  0
   -9.9187  -27.3850   30.9910 C   0  0  0  0  0  0  0  0  0  0  0  0
  -10.4115  -26.5741   30.0037 C   0  0  0  0  0  0  0  0  0  0  0  0
  -10.7650  -25.4193   30.6321 N   0  0  0  0  0  0  0  0  0  0  0  0
  -11.2614  -24.2928   30.0180 C   0  0  0  0  0  0  0  0  0  0  0  0
  -11.6291  -23.1001   30.5804 C   0  0  0  0  0  0  0  0  0  0  0  0
  -11.8208  -22.2582   29.4753 C   0  0  0  0  0  0  0  0  0  0  0  0
  -11.7194  -22.9014   28.3117 N   0  0  0  0  0  0  0  0  0  0  0  0
  -11.3938  -24.1480   28.6695 N   0  0  0  0  0  0  0  0  0  0  0  0
  -10.4656  -25.5970   31.9646 C   0  0  0  0  0  0  0  0  0  0  0  0
   -9.9584  -26.7832   32.2132 N   0  0  0  0  0  0  0  0  0  0  0  0
   -8.0958  -28.3209   32.1909 H   0  0  0  0  0  0  0  0  0  0  0  0
   -9.1963  -28.8519   29.7432 H   0  0  0  0  0  0  0  0  0  0  0  0
  -10.2277  -29.4442   31.0554 H   0  0  0  0  0  0  0  0  0  0  0  0
  -10.5205  -26.7431   28.9435 H   0  0  0  0  0  0  0  0  0  0  0  0
  -11.6507  -22.8228   31.6254 H   0  0  0  0  0  0  0  0  0  0  0  0
  -12.0250  -21.1967   29.4716 H   0  0  0  0  0  0  0  0  0  0  0  0
  -11.2260  -24.8254   27.9348 H   0  0  0  0  0  0  0  0  0  0  0  0
  -10.6398  -24.8280   32.7049 H   0  0  0  0  0  0  0  0  0  0  0  0
  1  2  1  0
  2  3  1  0
  3  4  2  0
  4  5  1  0
  5  6  1  0
  6  7  2  0
  7  8  1  0
  8  9  2  0
  9 10  1  0
  5 11  1  0
 11 12  2  0
 12  3  1  0
 10  6  1  0
  1 13  1  0
  2 14  1  0
  2 15  1  0
  4 16  1  0
  7 17  1  0
  8 18  1  0
 10 19  1  0
 11 20  1  0
M  END
>  <Energy>  (221) 
26.835223051968416

>  <compound_id>  (221) 
8165

>  <target_id>  (221) 
1

>  <reference_id>  (221) 
35

>  <inspiration_ids>  (221) 
[35, 96]

>  <energy_score>  (221) 
-14.905296555634322

>  <distance_score>  (221) 
1.874079354526902

>  <path>  (221) 
/opt/xchem-fragalysis-2/maxwin/BulkDock/SCRATCH/511017/C8165-P35/C8165-P35.minimised.mol

>  <scratch_subdir>  (221) 
/opt/xchem-fragalysis-2/maxwin/BulkDock/SCRATCH/511017/C8165-P35

>  <fragmenstein_runtime>  (221) 
1.5243799686431885

>  <fragmenstein_outcome>  (221) 
too moved

>  <fragmenstein_mode>  (221) 
expansion

>  <fragmenstein_error>  (221) 


$$$$
C8165-P96
     RDKit          3D

 20 21  0  0  0  0  0  0  0  0999 V2000
  -11.8861  -29.7226   32.5667 O   0  0  0  0  0  0  0  0  0  0  0  0
  -12.5594  -28.9748   31.5552 C   0  0  0  0  0  0  0  0  0  0  0  0
  -11.8265  -27.7256   31.2115 C   0  0  0  0  0  0  0  0  0  0  0  0
  -11.8338  -26.9861   30.0491 C   0  0  0  0  0  0  0  0  0  0  0  0
  -11.0275  -25.8951   30.2838 N   0  0  0  0  0  0  0  0  0  0  0  0
  -10.8271  -24.7983   29.4715 C   0  0  0  0  0  0  0  0  0  0  0  0
  -10.0064  -23.7169   29.6751 C   0  0  0  0  0  0  0  0  0  0  0  0
  -10.3316  -22.8437   28.6265 C   0  0  0  0  0  0  0  0  0  0  0  0
  -11.2329  -23.3614   27.7931 N   0  0  0  0  0  0  0  0  0  0  0  0
  -11.5015  -24.5640   28.3113 N   0  0  0  0  0  0  0  0  0  0  0  0
  -10.5059  -26.0742   31.5399 C   0  0  0  0  0  0  0  0  0  0  0  0
  -10.9745  -27.1565   32.1239 N   0  0  0  0  0  0  0  0  0  0  0  0
  -11.2128  -29.1142   32.9421 H   0  0  0  0  0  0  0  0  0  0  0  0
  -13.5584  -28.7282   31.9273 H   0  0  0  0  0  0  0  0  0  0  0  0
  -12.6648  -29.6175   30.6762 H   0  0  0  0  0  0  0  0  0  0  0  0
  -12.3663  -27.1280   29.1205 H   0  0  0  0  0  0  0  0  0  0  0  0
   -9.3172  -23.5369   30.4878 H   0  0  0  0  0  0  0  0  0  0  0  0
   -9.9621  -21.8453   28.4336 H   0  0  0  0  0  0  0  0  0  0  0  0
  -12.1874  -25.1425   27.8373 H   0  0  0  0  0  0  0  0  0  0  0  0
   -9.8001  -25.3858   31.9864 H   0  0  0  0  0  0  0  0  0  0  0  0
  1  2  1  0
  2  3  1  0
  3  4  2  0
  4  5  1  0
  5  6  1  0
  6  7  2  0
  7  8  1  0
  8  9  2  0
  9 10  1  0
  5 11  1  0
 11 12  2  0
 12  3  1  0
 10  6  1  0
  1 13  1  0
  2 14  1  0
  2 15  1  0
  4 16  1  0
  7 17  1  0
  8 18  1  0
 10 19  1  0
 11 20  1  0
M  END
>  <Energy>  (222) 
23.379857352082677

>  <compound_id>  (222) 
8165

>  <target_id>  (222) 
1

>  <reference_id>  (222) 
96

>  <inspiration_ids>  (222) 
[35, 96]

>  <energy_score>  (222) 
-18.360662255520538

>  <distance_score>  (222) 
1.9475827565699575

>  <path>  (222) 
/opt/xchem-fragalysis-2/maxwin/BulkDock/SCRATCH/511017/C8165-P96/C8165-P96.minimised.mol

>  <scratch_subdir>  (222) 
/opt/xchem-fragalysis-2/maxwin/BulkDock/SCRATCH/511017/C8165-P96

>  <fragmenstein_runtime>  (222) 
1.2714166641235352

>  <fragmenstein_outcome>  (222) 
too moved

>  <fragmenstein_mode>  (222) 
expansion

>  <fragmenstein_error>  (222) 


$$$$
C8166-P35
     RDKit          3D

 48 49  0  0  0  0  0  0  0  0999 V2000
  -10.3084  -26.6624   33.0161 C   0  0  0  0  0  0  0  0  0  0  0  0
  -10.2060  -26.5044   31.5027 C   0  0  0  0  0  0  0  0  0  0  0  0
   -9.7453  -25.0581   31.1162 C   0  0  0  0  0  0  0  0  0  0  0  0
  -10.6609  -24.0305   31.6023 N   0  0  0  0  0  0  0  0  0  0  0  0
  -11.5066  -23.1086   30.8933 C   0  0  0  0  0  0  0  0  0  0  0  0
  -11.6181  -22.8931   29.7217 O   0  0  0  0  0  0  0  0  0  0  0  0
  -12.3502  -22.3295   31.8762 C   0  0  0  0  0  0  0  0  0  0  0  0
  -11.4949  -21.2937   32.5932 C   0  0  0  0  0  0  0  0  0  0  0  0
  -11.0320  -21.7862   33.8901 C   0  0  0  0  0  0  0  0  0  0  0  0
  -11.7335  -21.9919   35.0470 C   0  0  0  0  0  0  0  0  0  0  0  0
  -10.8285  -22.6457   35.8753 C   0  0  0  0  0  0  0  0  0  0  0  0
   -9.6421  -22.8057   35.3000 N   0  0  0  0  0  0  0  0  0  0  0  0
   -9.7471  -22.1368   34.1500 N   0  0  0  0  0  0  0  0  0  0  0  0
  -11.1605  -27.3907   30.6762 N   0  0  0  0  0  0  0  0  0  0  0  0
  -11.9968  -26.1711   30.7184 C   0  0  0  0  0  0  0  0  0  0  0  0
  -11.0607  -27.8624   29.3459 C   0  0  0  0  0  0  0  0  0  0  0  0
  -10.2538  -27.6217   28.4900 O   0  0  0  0  0  0  0  0  0  0  0  0
  -12.2733  -28.7244   29.0361 C   0  0  0  0  0  0  0  0  0  0  0  0
  -12.7078  -28.3955   27.6110 C   0  0  0  0  0  0  0  0  0  0  0  0
  -13.0508  -26.9993   27.4406 N   0  0  0  0  0  0  0  0  0  0  0  0
  -12.2482  -26.0326   26.9051 C   0  0  0  0  0  0  0  0  0  0  0  0
  -12.8439  -24.8488   27.2579 C   0  0  0  0  0  0  0  0  0  0  0  0
  -14.0177  -25.0900   27.9335 N   0  0  0  0  0  0  0  0  0  0  0  0
  -14.1504  -26.3916   27.9631 C   0  0  0  0  0  0  0  0  0  0  0  0
  -10.9905  -27.4655   33.2901 H   0  0  0  0  0  0  0  0  0  0  0  0
   -9.3199  -26.8490   33.4450 H   0  0  0  0  0  0  0  0  0  0  0  0
  -10.6476  -25.7443   33.4877 H   0  0  0  0  0  0  0  0  0  0  0  0
   -9.2872  -27.0692   31.2709 H   0  0  0  0  0  0  0  0  0  0  0  0
   -9.6115  -24.9614   30.0341 H   0  0  0  0  0  0  0  0  0  0  0  0
   -8.7960  -24.8629   31.6195 H   0  0  0  0  0  0  0  0  0  0  0  0
  -10.7737  -23.8829   32.6008 H   0  0  0  0  0  0  0  0  0  0  0  0
  -13.1396  -21.8459   31.2963 H   0  0  0  0  0  0  0  0  0  0  0  0
  -12.8603  -23.0244   32.5536 H   0  0  0  0  0  0  0  0  0  0  0  0
  -10.6607  -20.9531   31.9744 H   0  0  0  0  0  0  0  0  0  0  0  0
  -12.1047  -20.4339   32.8469 H   0  0  0  0  0  0  0  0  0  0  0  0
  -12.7776  -21.7838   35.2117 H   0  0  0  0  0  0  0  0  0  0  0  0
  -10.9973  -23.0637   36.8525 H   0  0  0  0  0  0  0  0  0  0  0  0
   -8.9186  -22.0178   33.5742 H   0  0  0  0  0  0  0  0  0  0  0  0
  -11.7837  -25.4949   29.8853 H   0  0  0  0  0  0  0  0  0  0  0  0
  -12.2243  -25.7202   31.6791 H   0  0  0  0  0  0  0  0  0  0  0  0
  -13.0041  -26.5256   30.4588 H   0  0  0  0  0  0  0  0  0  0  0  0
  -13.0964  -28.5358   29.7329 H   0  0  0  0  0  0  0  0  0  0  0  0
  -12.0288  -29.7732   29.1409 H   0  0  0  0  0  0  0  0  0  0  0  0
  -13.5861  -28.9866   27.3317 H   0  0  0  0  0  0  0  0  0  0  0  0
  -11.8933  -28.6166   26.9169 H   0  0  0  0  0  0  0  0  0  0  0  0
  -11.3121  -26.2527   26.4161 H   0  0  0  0  0  0  0  0  0  0  0  0
  -12.4879  -23.8407   27.0772 H   0  0  0  0  0  0  0  0  0  0  0  0
  -14.9789  -26.9313   28.4016 H   0  0  0  0  0  0  0  0  0  0  0  0
  1  2  1  0
  2  3  1  0
  3  4  1  0
  4  5  1  0
  5  6  2  0
  5  7  1  0
  7  8  1  0
  8  9  1  0
  9 10  2  0
 10 11  1  0
 11 12  2  0
 12 13  1  0
  2 14  1  0
 14 15  1  0
 14 16  1  0
 16 17  2  0
 16 18  1  0
 18 19  1  0
 19 20  1  0
 20 21  1  0
 21 22  2  0
 22 23  1  0
 23 24  2  0
 13  9  1  0
 24 20  1  0
  1 25  1  0
  1 26  1  0
  1 27  1  0
  2 28  1  0
  3 29  1  0
  3 30  1  0
  4 31  1  0
  7 32  1  0
  7 33  1  0
  8 34  1  0
  8 35  1  0
 10 36  1  0
 11 37  1  0
 13 38  1  0
 15 39  1  0
 15 40  1  0
 15 41  1  0
 18 42  1  0
 18 43  1  0
 19 44  1  0
 19 45  1  0
 21 46  1  0
 22 47  1  0
 24 48  1  0
M  END
>  <Energy>  (223) 
80.581221188669659

>  <compound_id>  (223) 
8166

>  <target_id>  (223) 
1

>  <reference_id>  (223) 
35

>  <inspiration_ids>  (223) 
[35, 96]

>  <energy_score>  (223) 
58.91431538538433

>  <distance_score>  (223) 
3.700759046610283

>  <path>  (223) 
/opt/xchem-fragalysis-2/maxwin/BulkDock/SCRATCH/511017/C8166-P35/C8166-P35.minimised.mol

>  <scratch_subdir>  (223) 
/opt/xchem-fragalysis-2/maxwin/BulkDock/SCRATCH/511017/C8166-P35

>  <fragmenstein_runtime>  (223) 
8.6618332862854

>  <fragmenstein_outcome>  (223) 
too moved

>  <fragmenstein_mode>  (223) 
expansion

>  <fragmenstein_error>  (223) 


$$$$
C8166-P96
     RDKit          3D

 48 49  0  0  0  0  0  0  0  0999 V2000
  -15.9364  -25.3337   31.8455 C   0  0  0  0  0  0  0  0  0  0  0  0
  -14.4185  -25.6173   31.8746 C   0  0  0  0  0  0  0  0  0  0  0  0
  -13.6130  -24.4189   31.2604 C   0  0  0  0  0  0  0  0  0  0  0  0
  -13.7117  -23.0731   31.7314 N   0  0  0  0  0  0  0  0  0  0  0  0
  -14.3266  -22.5301   32.9003 C   0  0  0  0  0  0  0  0  0  0  0  0
  -14.9875  -23.0519   33.7493 O   0  0  0  0  0  0  0  0  0  0  0  0
  -13.9653  -21.0451   32.9993 C   0  0  0  0  0  0  0  0  0  0  0  0
  -12.6328  -20.7810   33.7051 C   0  0  0  0  0  0  0  0  0  0  0  0
  -11.5055  -21.6495   33.2760 C   0  0  0  0  0  0  0  0  0  0  0  0
  -10.7858  -21.7548   32.1075 C   0  0  0  0  0  0  0  0  0  0  0  0
   -9.8872  -22.8135   32.3342 C   0  0  0  0  0  0  0  0  0  0  0  0
  -10.0066  -23.3298   33.5566 N   0  0  0  0  0  0  0  0  0  0  0  0
  -10.9651  -22.5761   34.1323 N   0  0  0  0  0  0  0  0  0  0  0  0
  -13.8798  -26.7279   30.9457 N   0  0  0  0  0  0  0  0  0  0  0  0
  -14.4901  -27.6130   32.0033 C   0  0  0  0  0  0  0  0  0  0  0  0
  -14.3063  -27.1457   29.6520 C   0  0  0  0  0  0  0  0  0  0  0  0
  -15.2497  -26.8034   28.9919 O   0  0  0  0  0  0  0  0  0  0  0  0
  -13.2792  -28.1030   29.0734 C   0  0  0  0  0  0  0  0  0  0  0  0
  -11.8506  -27.5618   29.2224 C   0  0  0  0  0  0  0  0  0  0  0  0
  -11.5651  -26.2269   28.7329 N   0  0  0  0  0  0  0  0  0  0  0  0
  -10.6302  -25.3796   29.2722 C   0  0  0  0  0  0  0  0  0  0  0  0
  -10.6852  -24.2421   28.5045 C   0  0  0  0  0  0  0  0  0  0  0  0
  -11.6243  -24.3748   27.5196 N   0  0  0  0  0  0  0  0  0  0  0  0
  -12.1311  -25.5783   27.6742 C   0  0  0  0  0  0  0  0  0  0  0  0
  -16.4042  -25.7369   32.7519 H   0  0  0  0  0  0  0  0  0  0  0  0
  -16.1731  -24.2684   31.8280 H   0  0  0  0  0  0  0  0  0  0  0  0
  -16.4408  -25.8049   30.9988 H   0  0  0  0  0  0  0  0  0  0  0  0
  -14.0394  -25.6511   32.8968 H   0  0  0  0  0  0  0  0  0  0  0  0
  -12.5462  -24.6552   31.3676 H   0  0  0  0  0  0  0  0  0  0  0  0
  -13.7846  -24.3639   30.1813 H   0  0  0  0  0  0  0  0  0  0  0  0
  -13.2980  -22.3209   31.1971 H   0  0  0  0  0  0  0  0  0  0  0  0
  -14.7747  -20.5334   33.5345 H   0  0  0  0  0  0  0  0  0  0  0  0
  -13.9566  -20.6031   31.9962 H   0  0  0  0  0  0  0  0  0  0  0  0
  -12.3527  -19.7314   33.5570 H   0  0  0  0  0  0  0  0  0  0  0  0
  -12.7825  -20.8979   34.7782 H   0  0  0  0  0  0  0  0  0  0  0  0
  -10.9009  -21.1647   31.2104 H   0  0  0  0  0  0  0  0  0  0  0  0
   -9.1459  -23.2288   31.6637 H   0  0  0  0  0  0  0  0  0  0  0  0
  -11.2112  -22.7368   35.1144 H   0  0  0  0  0  0  0  0  0  0  0  0
  -15.5851  -27.6749   31.9892 H   0  0  0  0  0  0  0  0  0  0  0  0
  -14.2044  -28.6332   31.7028 H   0  0  0  0  0  0  0  0  0  0  0  0
  -14.0410  -27.5429   33.0033 H   0  0  0  0  0  0  0  0  0  0  0  0
  -13.3745  -29.0784   29.5613 H   0  0  0  0  0  0  0  0  0  0  0  0
  -13.5085  -28.2484   28.0109 H   0  0  0  0  0  0  0  0  0  0  0  0
  -11.1533  -28.2385   28.7215 H   0  0  0  0  0  0  0  0  0  0  0  0
  -11.5722  -27.5708   30.2833 H   0  0  0  0  0  0  0  0  0  0  0  0
  -10.0276  -25.6397   30.1318 H   0  0  0  0  0  0  0  0  0  0  0  0
  -10.1014  -23.3368   28.6067 H   0  0  0  0  0  0  0  0  0  0  0  0
  -12.9036  -26.0122   27.0517 H   0  0  0  0  0  0  0  0  0  0  0  0
  1  2  1  0
  2  3  1  0
  3  4  1  0
  4  5  1  0
  5  6  2  0
  5  7  1  0
  7  8  1  0
  8  9  1  0
  9 10  2  0
 10 11  1  0
 11 12  2  0
 12 13  1  0
  2 14  1  0
 14 15  1  0
 14 16  1  0
 16 17  2  0
 16 18  1  0
 18 19  1  0
 19 20  1  0
 20 21  1  0
 21 22  2  0
 22 23  1  0
 23 24  2  0
 13  9  1  0
 24 20  1  0
  1 25  1  0
  1 26  1  0
  1 27  1  0
  2 28  1  0
  3 29  1  0
  3 30  1  0
  4 31  1  0
  7 32  1  0
  7 33  1  0
  8 34  1  0
  8 35  1  0
 10 36  1  0
 11 37  1  0
 13 38  1  0
 15 39  1  0
 15 40  1  0
 15 41  1  0
 18 42  1  0
 18 43  1  0
 19 44  1  0
 19 45  1  0
 21 46  1  0
 22 47  1  0
 24 48  1  0
M  END
>  <Energy>  (224) 
72.307339103417334

>  <compound_id>  (224) 
8166

>  <target_id>  (224) 
1

>  <reference_id>  (224) 
96

>  <inspiration_ids>  (224) 
[35, 96]

>  <energy_score>  (224) 
50.64043330013192

>  <distance_score>  (224) 
3.230304176205811

>  <path>  (224) 
/opt/xchem-fragalysis-2/maxwin/BulkDock/SCRATCH/511017/C8166-P96/C8166-P96.minimised.mol

>  <scratch_subdir>  (224) 
/opt/xchem-fragalysis-2/maxwin/BulkDock/SCRATCH/511017/C8166-P96

>  <fragmenstein_runtime>  (224) 
8.5563485622406

>  <fragmenstein_outcome>  (224) 
too moved

>  <fragmenstein_mode>  (224) 
expansion

>  <fragmenstein_error>  (224) 


$$$$
C8167-P35
     RDKit          3D

 42 43  0  0  0  0  0  0  0  0999 V2000
  -11.7660  -23.6827   25.8596 C   0  0  0  0  0  0  0  0  0  0  0  0
  -11.6431  -24.8275   26.7033 N   0  0  0  0  0  0  0  0  0  0  0  0
  -11.1096  -24.8752   27.9486 C   0  0  0  0  0  0  0  0  0  0  0  0
  -11.3860  -26.0268   28.5168 N   0  0  0  0  0  0  0  0  0  0  0  0
  -12.1663  -26.7304   27.5989 C   0  0  0  0  0  0  0  0  0  0  0  0
  -13.0935  -27.8145   27.9591 C   0  0  0  0  0  0  0  0  0  0  0  0
  -13.9642  -28.1158   27.2511 O   0  0  0  0  0  0  0  0  0  0  0  0
  -12.7439  -28.3030   29.3576 N   0  0  0  0  0  0  0  0  0  0  0  0
  -13.4479  -29.2087   30.2425 C   0  0  0  0  0  0  0  0  0  0  0  0
  -12.5202  -29.7488   31.3390 C   0  0  0  0  0  0  0  0  0  0  0  0
  -14.0648  -30.3915   29.4873 C   0  0  0  0  0  0  0  0  0  0  0  0
  -14.5816  -28.3334   30.8948 C   0  0  0  0  0  0  0  0  0  0  0  0
  -14.2388  -26.9133   31.0535 N   0  0  0  0  0  0  0  0  0  0  0  0
  -12.8418  -26.2117   31.1822 C   0  0  0  0  0  0  0  0  0  0  0  0
  -11.7636  -26.6722   31.2582 O   0  0  0  0  0  0  0  0  0  0  0  0
  -13.0865  -24.6831   31.1622 C   0  0  0  0  0  0  0  0  0  0  0  0
  -11.9942  -23.9081   31.8516 C   0  0  0  0  0  0  0  0  0  0  0  0
  -11.9346  -22.5989   32.2709 C   0  0  0  0  0  0  0  0  0  0  0  0
  -10.7098  -22.4988   32.9457 C   0  0  0  0  0  0  0  0  0  0  0  0
  -10.0254  -23.6414   32.9403 N   0  0  0  0  0  0  0  0  0  0  0  0
  -10.8217  -24.4852   32.2768 N   0  0  0  0  0  0  0  0  0  0  0  0
  -12.2278  -26.0210   26.4252 C   0  0  0  0  0  0  0  0  0  0  0  0
  -11.5648  -22.7899   26.4516 H   0  0  0  0  0  0  0  0  0  0  0  0
  -12.7895  -23.6333   25.4777 H   0  0  0  0  0  0  0  0  0  0  0  0
  -11.0784  -23.8103   25.0238 H   0  0  0  0  0  0  0  0  0  0  0  0
  -10.5674  -24.0570   28.4058 H   0  0  0  0  0  0  0  0  0  0  0  0
  -11.9533  -27.7593   29.7216 H   0  0  0  0  0  0  0  0  0  0  0  0
  -12.1413  -28.9586   31.9917 H   0  0  0  0  0  0  0  0  0  0  0  0
  -11.6532  -30.2547   30.9084 H   0  0  0  0  0  0  0  0  0  0  0  0
  -13.0435  -30.4674   31.9800 H   0  0  0  0  0  0  0  0  0  0  0  0
  -13.2994  -30.9617   28.9515 H   0  0  0  0  0  0  0  0  0  0  0  0
  -14.8020  -30.0635   28.7471 H   0  0  0  0  0  0  0  0  0  0  0  0
  -14.5777  -31.0740   30.1741 H   0  0  0  0  0  0  0  0  0  0  0  0
  -15.4745  -28.3382   30.2586 H   0  0  0  0  0  0  0  0  0  0  0  0
  -14.8758  -28.7201   31.8758 H   0  0  0  0  0  0  0  0  0  0  0  0
  -14.9591  -26.2133   30.9282 H   0  0  0  0  0  0  0  0  0  0  0  0
  -13.1630  -24.3653   30.1175 H   0  0  0  0  0  0  0  0  0  0  0  0
  -14.0375  -24.4540   31.6566 H   0  0  0  0  0  0  0  0  0  0  0  0
  -12.6915  -21.8400   32.1539 H   0  0  0  0  0  0  0  0  0  0  0  0
  -10.2827  -21.6386   33.4463 H   0  0  0  0  0  0  0  0  0  0  0  0
  -10.5400  -25.4584   32.1626 H   0  0  0  0  0  0  0  0  0  0  0  0
  -12.8049  -26.1909   25.5276 H   0  0  0  0  0  0  0  0  0  0  0  0
  1  2  1  0
  2  3  1  0
  3  4  2  0
  4  5  1  0
  5  6  1  0
  6  7  2  0
  6  8  1  0
  8  9  1  0
  9 10  1  0
  9 11  1  0
  9 12  1  0
 12 13  1  0
 13 14  1  0
 14 15  2  0
 14 16  1  0
 16 17  1  0
 17 18  2  0
 18 19  1  0
 19 20  2  0
 20 21  1  0
  5 22  2  0
 22  2  1  0
 21 17  1  0
  1 23  1  0
  1 24  1  0
  1 25  1  0
  3 26  1  0
  8 27  1  0
 10 28  1  0
 10 29  1  0
 10 30  1  0
 11 31  1  0
 11 32  1  0
 11 33  1  0
 12 34  1  0
 12 35  1  0
 13 36  1  0
 16 37  1  0
 16 38  1  0
 18 39  1  0
 19 40  1  0
 21 41  1  0
 22 42  1  0
M  END
>  <Energy>  (225) 
80.869554346169295

>  <compound_id>  (225) 
8167

>  <target_id>  (225) 
1

>  <reference_id>  (225) 
35

>  <inspiration_ids>  (225) 
[35, 96]

>  <energy_score>  (225) 
5.674733520505811

>  <distance_score>  (225) 
4.334367158578996

>  <path>  (225) 
/opt/xchem-fragalysis-2/maxwin/BulkDock/SCRATCH/511017/C8167-P35/C8167-P35.minimised.mol

>  <scratch_subdir>  (225) 
/opt/xchem-fragalysis-2/maxwin/BulkDock/SCRATCH/511017/C8167-P35

>  <fragmenstein_runtime>  (225) 
8.005791187286377

>  <fragmenstein_outcome>  (225) 
too moved

>  <fragmenstein_mode>  (225) 
expansion

>  <fragmenstein_error>  (225) 


$$$$
C8167-P96
     RDKit          3D

 42 43  0  0  0  0  0  0  0  0999 V2000
  -10.7136  -23.6474   27.1190 C   0  0  0  0  0  0  0  0  0  0  0  0
  -11.4342  -23.2252   28.2939 N   0  0  0  0  0  0  0  0  0  0  0  0
  -12.4689  -23.9044   28.8517 C   0  0  0  0  0  0  0  0  0  0  0  0
  -12.9938  -23.2376   29.8534 N   0  0  0  0  0  0  0  0  0  0  0  0
  -12.2170  -22.1036   30.0242 C   0  0  0  0  0  0  0  0  0  0  0  0
  -12.4523  -21.1394   31.1486 C   0  0  0  0  0  0  0  0  0  0  0  0
  -11.5803  -20.4628   31.5402 O   0  0  0  0  0  0  0  0  0  0  0  0
  -13.9088  -21.3146   31.6756 N   0  0  0  0  0  0  0  0  0  0  0  0
  -14.5722  -20.7525   32.8751 C   0  0  0  0  0  0  0  0  0  0  0  0
  -14.1638  -19.3593   33.3118 C   0  0  0  0  0  0  0  0  0  0  0  0
  -16.1027  -20.7298   32.6872 C   0  0  0  0  0  0  0  0  0  0  0  0
  -14.2685  -21.6811   34.0459 C   0  0  0  0  0  0  0  0  0  0  0  0
  -12.8629  -21.9233   34.1508 N   0  0  0  0  0  0  0  0  0  0  0  0
  -11.9657  -22.9307   33.4135 C   0  0  0  0  0  0  0  0  0  0  0  0
  -12.2399  -23.7751   32.6604 O   0  0  0  0  0  0  0  0  0  0  0  0
  -10.5272  -22.5576   33.7731 C   0  0  0  0  0  0  0  0  0  0  0  0
   -9.6229  -23.4770   33.0584 C   0  0  0  0  0  0  0  0  0  0  0  0
   -9.4635  -23.7025   31.7160 C   0  0  0  0  0  0  0  0  0  0  0  0
   -8.8743  -24.9628   31.6555 C   0  0  0  0  0  0  0  0  0  0  0  0
   -8.5347  -25.4293   32.8599 N   0  0  0  0  0  0  0  0  0  0  0  0
   -8.8889  -24.4350   33.6813 N   0  0  0  0  0  0  0  0  0  0  0  0
  -11.2452  -22.0857   29.0308 C   0  0  0  0  0  0  0  0  0  0  0  0
  -10.7265  -24.7386   27.0582 H   0  0  0  0  0  0  0  0  0  0  0  0
   -9.6853  -23.2966   27.2098 H   0  0  0  0  0  0  0  0  0  0  0  0
  -11.1978  -23.2094   26.2435 H   0  0  0  0  0  0  0  0  0  0  0  0
  -12.8244  -24.8565   28.4796 H   0  0  0  0  0  0  0  0  0  0  0  0
  -14.3773  -22.0505   31.1454 H   0  0  0  0  0  0  0  0  0  0  0  0
  -13.0788  -19.2649   33.3936 H   0  0  0  0  0  0  0  0  0  0  0  0
  -14.5879  -18.6276   32.6278 H   0  0  0  0  0  0  0  0  0  0  0  0
  -14.5749  -19.1058   34.2974 H   0  0  0  0  0  0  0  0  0  0  0  0
  -16.6077  -20.3263   33.5732 H   0  0  0  0  0  0  0  0  0  0  0  0
  -16.5054  -21.7351   32.5229 H   0  0  0  0  0  0  0  0  0  0  0  0
  -16.3854  -20.1041   31.8332 H   0  0  0  0  0  0  0  0  0  0  0  0
  -14.6643  -21.3013   34.9885 H   0  0  0  0  0  0  0  0  0  0  0  0
  -14.7293  -22.6430   33.8045 H   0  0  0  0  0  0  0  0  0  0  0  0
  -12.2998  -21.3782   34.7984 H   0  0  0  0  0  0  0  0  0  0  0  0
  -10.3873  -22.6435   34.8500 H   0  0  0  0  0  0  0  0  0  0  0  0
  -10.3470  -21.5312   33.4481 H   0  0  0  0  0  0  0  0  0  0  0  0
   -9.8697  -23.1309   30.9057 H   0  0  0  0  0  0  0  0  0  0  0  0
   -8.6772  -25.5566   30.7775 H   0  0  0  0  0  0  0  0  0  0  0  0
   -8.6898  -24.5305   34.6689 H   0  0  0  0  0  0  0  0  0  0  0  0
  -10.4800  -21.3600   28.7937 H   0  0  0  0  0  0  0  0  0  0  0  0
  1  2  1  0
  2  3  1  0
  3  4  2  0
  4  5  1  0
  5  6  1  0
  6  7  2  0
  6  8  1  0
  8  9  1  0
  9 10  1  0
  9 11  1  0
  9 12  1  0
 12 13  1  0
 13 14  1  0
 14 15  2  0
 14 16  1  0
 16 17  1  0
 17 18  2  0
 18 19  1  0
 19 20  2  0
 20 21  1  0
  5 22  2  0
 22  2  1  0
 21 17  1  0
  1 23  1  0
  1 24  1  0
  1 25  1  0
  3 26  1  0
  8 27  1  0
 10 28  1  0
 10 29  1  0
 10 30  1  0
 11 31  1  0
 11 32  1  0
 11 33  1  0
 12 34  1  0
 12 35  1  0
 13 36  1  0
 16 37  1  0
 16 38  1  0
 18 39  1  0
 19 40  1  0
 21 41  1  0
 22 42  1  0
M  END
>  <Energy>  (226) 
94.605432003008673

>  <compound_id>  (226) 
8167

>  <target_id>  (226) 
1

>  <reference_id>  (226) 
96

>  <inspiration_ids>  (226) 
[35, 96]

>  <energy_score>  (226) 
19.410611177346453

>  <distance_score>  (226) 
2.248682881318118

>  <path>  (226) 
/opt/xchem-fragalysis-2/maxwin/BulkDock/SCRATCH/511017/C8167-P96/C8167-P96.minimised.mol

>  <scratch_subdir>  (226) 
/opt/xchem-fragalysis-2/maxwin/BulkDock/SCRATCH/511017/C8167-P96

>  <fragmenstein_runtime>  (226) 
6.128345251083374

>  <fragmenstein_outcome>  (226) 
too moved

>  <fragmenstein_mode>  (226) 
expansion

>  <fragmenstein_error>  (226) 


$$$$
C8168-P35
     RDKit          3D

 42 43  0  0  0  0  0  0  0  0999 V2000
  -10.7317  -27.3311   27.1733 C   0  0  0  0  0  0  0  0  0  0  0  0
  -11.3083  -26.1148   27.7536 C   0  0  0  0  0  0  0  0  0  0  0  0
  -10.7064  -24.9667   27.9341 N   0  0  0  0  0  0  0  0  0  0  0  0
  -11.6782  -24.1156   28.3709 C   0  0  0  0  0  0  0  0  0  0  0  0
  -11.3831  -22.6858   28.4681 C   0  0  0  0  0  0  0  0  0  0  0  0
  -12.0799  -21.8773   29.5450 C   0  0  0  0  0  0  0  0  0  0  0  0
  -12.1717  -20.7386   29.3561 O   0  0  0  0  0  0  0  0  0  0  0  0
  -12.6098  -22.7387   30.6960 N   0  0  0  0  0  0  0  0  0  0  0  0
  -13.4077  -22.3728   31.8721 C   0  0  0  0  0  0  0  0  0  0  0  0
  -12.5448  -21.5102   32.8070 C   0  0  0  0  0  0  0  0  0  0  0  0
  -13.2611  -20.9615   34.0143 C   0  0  0  0  0  0  0  0  0  0  0  0
  -11.3590  -22.2311   33.1041 N   0  0  0  0  0  0  0  0  0  0  0  0
  -10.8031  -22.7315   34.4475 C   0  0  0  0  0  0  0  0  0  0  0  0
  -11.1923  -22.5662   35.5360 O   0  0  0  0  0  0  0  0  0  0  0  0
   -9.6439  -23.6021   34.0763 C   0  0  0  0  0  0  0  0  0  0  0  0
   -9.9484  -24.7467   33.1335 C   0  0  0  0  0  0  0  0  0  0  0  0
  -10.9977  -25.0133   32.2867 C   0  0  0  0  0  0  0  0  0  0  0  0
  -10.6989  -26.1818   31.5956 C   0  0  0  0  0  0  0  0  0  0  0  0
   -9.5681  -26.7135   32.0324 N   0  0  0  0  0  0  0  0  0  0  0  0
   -9.1571  -25.8640   32.9907 N   0  0  0  0  0  0  0  0  0  0  0  0
  -12.8664  -24.7851   28.5435 C   0  0  0  0  0  0  0  0  0  0  0  0
  -12.6121  -26.0598   28.1547 N   0  0  0  0  0  0  0  0  0  0  0  0
   -9.6777  -27.4212   27.4402 H   0  0  0  0  0  0  0  0  0  0  0  0
  -11.2332  -28.2244   27.5584 H   0  0  0  0  0  0  0  0  0  0  0  0
  -10.8413  -27.3313   26.0867 H   0  0  0  0  0  0  0  0  0  0  0  0
  -10.3113  -22.5107   28.5317 H   0  0  0  0  0  0  0  0  0  0  0  0
  -11.6850  -22.2463   27.5099 H   0  0  0  0  0  0  0  0  0  0  0  0
  -12.3293  -23.6981   30.5533 H   0  0  0  0  0  0  0  0  0  0  0  0
  -14.2890  -21.8243   31.5257 H   0  0  0  0  0  0  0  0  0  0  0  0
  -13.7454  -23.2970   32.3522 H   0  0  0  0  0  0  0  0  0  0  0  0
  -12.1232  -20.6899   32.2500 H   0  0  0  0  0  0  0  0  0  0  0  0
  -14.2657  -20.6030   33.7739 H   0  0  0  0  0  0  0  0  0  0  0  0
  -12.6923  -20.1292   34.4453 H   0  0  0  0  0  0  0  0  0  0  0  0
  -13.3362  -21.7180   34.7844 H   0  0  0  0  0  0  0  0  0  0  0  0
  -10.8178  -22.6311   32.3441 H   0  0  0  0  0  0  0  0  0  0  0  0
   -8.9347  -22.9126   33.6074 H   0  0  0  0  0  0  0  0  0  0  0  0
   -9.2293  -23.9765   35.0080 H   0  0  0  0  0  0  0  0  0  0  0  0
  -11.9246  -24.4886   32.2394 H   0  0  0  0  0  0  0  0  0  0  0  0
  -11.2716  -26.6996   30.8405 H   0  0  0  0  0  0  0  0  0  0  0  0
   -8.3254  -26.1376   33.5052 H   0  0  0  0  0  0  0  0  0  0  0  0
  -13.8491  -24.4785   28.8663 H   0  0  0  0  0  0  0  0  0  0  0  0
  -13.2750  -26.8232   28.1243 H   0  0  0  0  0  0  0  0  0  0  0  0
  1  2  1  0
  2  3  2  0
  3  4  1  0
  4  5  1  0
  5  6  1  0
  6  7  2  0
  6  8  1  0
  8  9  1  0
  9 10  1  0
 10 11  1  0
 10 12  1  0
 12 13  1  0
 13 14  2  0
 13 15  1  0
 15 16  1  0
 16 17  2  0
 17 18  1  0
 18 19  2  0
 19 20  1  0
  4 21  2  0
 21 22  1  0
 22  2  1  0
 20 16  1  0
  1 23  1  0
  1 24  1  0
  1 25  1  0
  5 26  1  0
  5 27  1  0
  8 28  1  0
  9 29  1  0
  9 30  1  0
 10 31  1  0
 11 32  1  0
 11 33  1  0
 11 34  1  0
 12 35  1  0
 15 36  1  0
 15 37  1  0
 17 38  1  0
 18 39  1  0
 20 40  1  0
 21 41  1  0
 22 42  1  0
M  END
>  <Energy>  (227) 
81.217172649119249

>  <compound_id>  (227) 
8168

>  <target_id>  (227) 
1

>  <reference_id>  (227) 
35

>  <inspiration_ids>  (227) 
[35, 96]

>  <energy_score>  (227) 
13.086371925742128

>  <distance_score>  (227) 
2.1996883667344926

>  <path>  (227) 
/opt/xchem-fragalysis-2/maxwin/BulkDock/SCRATCH/511017/C8168-P35/C8168-P35.minimised.mol

>  <scratch_subdir>  (227) 
/opt/xchem-fragalysis-2/maxwin/BulkDock/SCRATCH/511017/C8168-P35

>  <fragmenstein_runtime>  (227) 
6.279849290847778

>  <fragmenstein_outcome>  (227) 
too moved

>  <fragmenstein_mode>  (227) 
expansion

>  <fragmenstein_error>  (227) 


$$$$
C8168-P96
     RDKit          3D

 42 43  0  0  0  0  0  0  0  0999 V2000
  -11.9405  -25.6358   26.4319 C   0  0  0  0  0  0  0  0  0  0  0  0
  -11.7905  -24.5881   27.4300 C   0  0  0  0  0  0  0  0  0  0  0  0
  -10.7791  -23.7690   27.5835 N   0  0  0  0  0  0  0  0  0  0  0  0
  -11.2541  -22.8231   28.4452 C   0  0  0  0  0  0  0  0  0  0  0  0
  -10.5825  -21.5325   28.6072 C   0  0  0  0  0  0  0  0  0  0  0  0
  -10.9706  -20.8361   29.9013 C   0  0  0  0  0  0  0  0  0  0  0  0
  -11.4296  -19.7709   29.9276 O   0  0  0  0  0  0  0  0  0  0  0  0
  -10.5405  -21.7632   31.0479 N   0  0  0  0  0  0  0  0  0  0  0  0
  -10.6731  -21.6111   32.4755 C   0  0  0  0  0  0  0  0  0  0  0  0
   -9.9280  -22.7813   33.1535 C   0  0  0  0  0  0  0  0  0  0  0  0
   -8.4257  -22.6541   33.0673 C   0  0  0  0  0  0  0  0  0  0  0  0
  -10.2156  -23.9849   32.4279 N   0  0  0  0  0  0  0  0  0  0  0  0
  -11.5094  -24.4569   31.7549 C   0  0  0  0  0  0  0  0  0  0  0  0
  -12.5712  -23.9823   31.7457 O   0  0  0  0  0  0  0  0  0  0  0  0
  -11.1320  -25.7246   30.9894 C   0  0  0  0  0  0  0  0  0  0  0  0
  -12.1179  -26.6979   31.4373 C   0  0  0  0  0  0  0  0  0  0  0  0
  -13.4890  -26.6641   31.3675 C   0  0  0  0  0  0  0  0  0  0  0  0
  -13.8872  -27.6980   32.2134 C   0  0  0  0  0  0  0  0  0  0  0  0
  -12.8536  -28.3597   32.7352 N   0  0  0  0  0  0  0  0  0  0  0  0
  -11.7891  -27.7583   32.2149 N   0  0  0  0  0  0  0  0  0  0  0  0
  -12.4383  -23.2217   29.0026 C   0  0  0  0  0  0  0  0  0  0  0  0
  -12.7908  -24.3343   28.3198 N   0  0  0  0  0  0  0  0  0  0  0  0
  -12.1499  -26.5784   26.9414 H   0  0  0  0  0  0  0  0  0  0  0  0
  -12.7933  -25.4291   25.7794 H   0  0  0  0  0  0  0  0  0  0  0  0
  -11.0343  -25.7013   25.8310 H   0  0  0  0  0  0  0  0  0  0  0  0
   -9.5047  -21.6782   28.5573 H   0  0  0  0  0  0  0  0  0  0  0  0
  -10.8706  -20.8915   27.7754 H   0  0  0  0  0  0  0  0  0  0  0  0
  -10.1013  -22.5935   30.6654 H   0  0  0  0  0  0  0  0  0  0  0  0
  -10.2951  -20.6300   32.7616 H   0  0  0  0  0  0  0  0  0  0  0  0
  -11.7434  -21.6346   32.7047 H   0  0  0  0  0  0  0  0  0  0  0  0
  -10.2608  -22.8899   34.1896 H   0  0  0  0  0  0  0  0  0  0  0  0
   -8.1215  -21.6202   33.1889 H   0  0  0  0  0  0  0  0  0  0  0  0
   -8.0318  -22.9930   32.1026 H   0  0  0  0  0  0  0  0  0  0  0  0
   -7.9592  -23.2845   33.8317 H   0  0  0  0  0  0  0  0  0  0  0  0
   -9.4933  -24.6836   32.2991 H   0  0  0  0  0  0  0  0  0  0  0  0
  -11.1758  -25.5584   29.9185 H   0  0  0  0  0  0  0  0  0  0  0  0
  -10.1182  -26.0634   31.2058 H   0  0  0  0  0  0  0  0  0  0  0  0
  -14.1110  -25.9375   30.8658 H   0  0  0  0  0  0  0  0  0  0  0  0
  -14.8908  -27.9994   32.4880 H   0  0  0  0  0  0  0  0  0  0  0  0
  -10.8780  -28.0912   32.5056 H   0  0  0  0  0  0  0  0  0  0  0  0
  -13.0780  -22.7633   29.7424 H   0  0  0  0  0  0  0  0  0  0  0  0
  -13.6723  -24.8256   28.3887 H   0  0  0  0  0  0  0  0  0  0  0  0
  1  2  1  0
  2  3  2  0
  3  4  1  0
  4  5  1  0
  5  6  1  0
  6  7  2  0
  6  8  1  0
  8  9  1  0
  9 10  1  0
 10 11  1  0
 10 12  1  0
 12 13  1  0
 13 14  2  0
 13 15  1  0
 15 16  1  0
 16 17  2  0
 17 18  1  0
 18 19  2  0
 19 20  1  0
  4 21  2  0
 21 22  1  0
 22  2  1  0
 20 16  1  0
  1 23  1  0
  1 24  1  0
  1 25  1  0
  5 26  1  0
  5 27  1  0
  8 28  1  0
  9 29  1  0
  9 30  1  0
 10 31  1  0
 11 32  1  0
 11 33  1  0
 11 34  1  0
 12 35  1  0
 15 36  1  0
 15 37  1  0
 17 38  1  0
 18 39  1  0
 20 40  1  0
 21 41  1  0
 22 42  1  0
M  END
>  <Energy>  (228) 
79.740227106252505

>  <compound_id>  (228) 
8168

>  <target_id>  (228) 
1

>  <reference_id>  (228) 
96

>  <inspiration_ids>  (228) 
[35, 96]

>  <energy_score>  (228) 
11.609426382877018

>  <distance_score>  (228) 
3.5495596216916394

>  <path>  (228) 
/opt/xchem-fragalysis-2/maxwin/BulkDock/SCRATCH/511017/C8168-P96/C8168-P96.minimised.mol

>  <scratch_subdir>  (228) 
/opt/xchem-fragalysis-2/maxwin/BulkDock/SCRATCH/511017/C8168-P96

>  <fragmenstein_runtime>  (228) 
6.765358209609985

>  <fragmenstein_outcome>  (228) 
too moved

>  <fragmenstein_mode>  (228) 
expansion

>  <fragmenstein_error>  (228) 


$$$$
C8170-P35
     RDKit          3D

 39 41  0  0  0  0  0  0  0  0999 V2000
  -14.8763  -23.7183   32.3561 C   0  0  0  0  0  0  0  0  0  0  0  0
  -13.6979  -22.8255   32.0135 C   0  0  0  0  0  0  0  0  0  0  0  0
  -12.5385  -23.1550   32.7828 N   0  0  0  0  0  0  0  0  0  0  0  0
  -11.3992  -22.2510   33.3272 C   0  0  0  0  0  0  0  0  0  0  0  0
  -11.2744  -21.0893   33.2966 O   0  0  0  0  0  0  0  0  0  0  0  0
  -10.2914  -23.1563   33.8773 C   0  0  0  0  0  0  0  0  0  0  0  0
  -10.0716  -24.3745   33.0258 C   0  0  0  0  0  0  0  0  0  0  0  0
  -10.2229  -24.6167   31.6771 C   0  0  0  0  0  0  0  0  0  0  0  0
   -9.9472  -25.9700   31.4895 C   0  0  0  0  0  0  0  0  0  0  0  0
   -9.6841  -26.5767   32.6399 N   0  0  0  0  0  0  0  0  0  0  0  0
   -9.6648  -25.5773   33.5296 N   0  0  0  0  0  0  0  0  0  0  0  0
  -13.1472  -22.9169   30.6001 C   0  0  0  0  0  0  0  0  0  0  0  0
  -12.2212  -21.9322   30.2299 C   0  0  0  0  0  0  0  0  0  0  0  0
  -11.5388  -21.9582   29.0318 C   0  0  0  0  0  0  0  0  0  0  0  0
  -11.7151  -22.9969   28.1613 C   0  0  0  0  0  0  0  0  0  0  0  0
  -12.4724  -24.0766   28.5941 C   0  0  0  0  0  0  0  0  0  0  0  0
  -12.1952  -25.2927   27.9788 N   0  0  0  0  0  0  0  0  0  0  0  0
  -12.0403  -26.4853   28.6315 C   0  0  0  0  0  0  0  0  0  0  0  0
  -11.3502  -27.2749   27.7536 C   0  0  0  0  0  0  0  0  0  0  0  0
  -11.2327  -26.6609   26.5394 N   0  0  0  0  0  0  0  0  0  0  0  0
  -11.7582  -25.4719   26.6990 C   0  0  0  0  0  0  0  0  0  0  0  0
  -13.2354  -24.0342   29.7761 C   0  0  0  0  0  0  0  0  0  0  0  0
  -15.1431  -23.5923   33.4050 H   0  0  0  0  0  0  0  0  0  0  0  0
  -15.7674  -23.4630   31.7894 H   0  0  0  0  0  0  0  0  0  0  0  0
  -14.6722  -24.7783   32.1864 H   0  0  0  0  0  0  0  0  0  0  0  0
  -13.9678  -21.7861   32.2290 H   0  0  0  0  0  0  0  0  0  0  0  0
  -12.2863  -24.1316   32.9075 H   0  0  0  0  0  0  0  0  0  0  0  0
   -9.3650  -22.5709   33.8727 H   0  0  0  0  0  0  0  0  0  0  0  0
  -10.5243  -23.3839   34.9174 H   0  0  0  0  0  0  0  0  0  0  0  0
  -10.5417  -23.9287   30.9221 H   0  0  0  0  0  0  0  0  0  0  0  0
   -9.9415  -26.5505   30.5781 H   0  0  0  0  0  0  0  0  0  0  0  0
   -9.3830  -25.7994   34.4755 H   0  0  0  0  0  0  0  0  0  0  0  0
  -11.9445  -21.1766   30.9526 H   0  0  0  0  0  0  0  0  0  0  0  0
  -10.7712  -21.2330   28.8367 H   0  0  0  0  0  0  0  0  0  0  0  0
  -11.1148  -23.0172   27.2601 H   0  0  0  0  0  0  0  0  0  0  0  0
  -12.3199  -26.6429   29.6634 H   0  0  0  0  0  0  0  0  0  0  0  0
  -10.9617  -28.2690   27.9263 H   0  0  0  0  0  0  0  0  0  0  0  0
  -11.8279  -24.7086   25.9340 H   0  0  0  0  0  0  0  0  0  0  0  0
  -13.8118  -24.8981   30.0948 H   0  0  0  0  0  0  0  0  0  0  0  0
  1  2  1  0
  2  3  1  0
  3  4  1  0
  4  5  2  0
  4  6  1  0
  6  7  1  0
  7  8  2  0
  8  9  1  0
  9 10  2  0
 10 11  1  0
  2 12  1  0
 12 13  2  0
 13 14  1  0
 14 15  2  0
 15 16  1  0
 16 17  1  0
 17 18  1  0
 18 19  2  0
 19 20  1  0
 20 21  2  0
 16 22  2  0
 11  7  1  0
 22 12  1  0
 21 17  1  0
  1 23  1  0
  1 24  1  0
  1 25  1  0
  2 26  1  0
  3 27  1  0
  6 28  1  0
  6 29  1  0
  8 30  1  0
  9 31  1  0
 11 32  1  0
 13 33  1  0
 14 34  1  0
 15 35  1  0
 18 36  1  0
 19 37  1  0
 21 38  1  0
 22 39  1  0
M  END
>  <Energy>  (229) 
85.766875448657004

>  <compound_id>  (229) 
8170

>  <target_id>  (229) 
1

>  <reference_id>  (229) 
35

>  <inspiration_ids>  (229) 
[35, 96]

>  <energy_score>  (229) 
1.0976393150193644

>  <distance_score>  (229) 
3.0269138016161685

>  <path>  (229) 
/opt/xchem-fragalysis-2/maxwin/BulkDock/SCRATCH/511017/C8170-P35/C8170-P35.minimised.mol

>  <scratch_subdir>  (229) 
/opt/xchem-fragalysis-2/maxwin/BulkDock/SCRATCH/511017/C8170-P35

>  <fragmenstein_runtime>  (229) 
9.306332349777222

>  <fragmenstein_outcome>  (229) 
too moved

>  <fragmenstein_mode>  (229) 
expansion

>  <fragmenstein_error>  (229) 


$$$$
C8170-P96
     RDKit          3D

 39 41  0  0  0  0  0  0  0  0999 V2000
  -14.0049  -20.1652   33.2014 C   0  0  0  0  0  0  0  0  0  0  0  0
  -13.4567  -21.4492   32.6199 C   0  0  0  0  0  0  0  0  0  0  0  0
  -12.3139  -21.9332   33.2958 N   0  0  0  0  0  0  0  0  0  0  0  0
  -11.5792  -23.2556   33.1689 C   0  0  0  0  0  0  0  0  0  0  0  0
  -11.8327  -24.1995   32.5457 O   0  0  0  0  0  0  0  0  0  0  0  0
  -10.2755  -23.1275   33.9736 C   0  0  0  0  0  0  0  0  0  0  0  0
   -9.2809  -23.8359   33.1286 C   0  0  0  0  0  0  0  0  0  0  0  0
   -9.2234  -25.1188   32.6276 C   0  0  0  0  0  0  0  0  0  0  0  0
   -8.8570  -24.9103   31.2880 C   0  0  0  0  0  0  0  0  0  0  0  0
   -8.4014  -23.6782   31.0813 N   0  0  0  0  0  0  0  0  0  0  0  0
   -8.4801  -23.1266   32.2955 N   0  0  0  0  0  0  0  0  0  0  0  0
  -12.7770  -21.4074   31.2338 C   0  0  0  0  0  0  0  0  0  0  0  0
  -11.7503  -20.4911   31.0023 C   0  0  0  0  0  0  0  0  0  0  0  0
  -11.0202  -20.5072   29.8293 C   0  0  0  0  0  0  0  0  0  0  0  0
  -11.1015  -21.5742   28.9592 C   0  0  0  0  0  0  0  0  0  0  0  0
  -11.8862  -22.6613   29.3066 C   0  0  0  0  0  0  0  0  0  0  0  0
  -11.5810  -23.9190   28.7440 N   0  0  0  0  0  0  0  0  0  0  0  0
  -10.6252  -24.1928   27.7964 C   0  0  0  0  0  0  0  0  0  0  0  0
  -10.4717  -25.5510   27.8122 C   0  0  0  0  0  0  0  0  0  0  0  0
  -11.3548  -26.1355   28.6646 N   0  0  0  0  0  0  0  0  0  0  0  0
  -12.0335  -25.1368   29.1786 C   0  0  0  0  0  0  0  0  0  0  0  0
  -12.7956  -22.5347   30.3804 C   0  0  0  0  0  0  0  0  0  0  0  0
  -13.2162  -19.4383   33.4126 H   0  0  0  0  0  0  0  0  0  0  0  0
  -14.7374  -19.7084   32.5289 H   0  0  0  0  0  0  0  0  0  0  0  0
  -14.5000  -20.3678   34.1578 H   0  0  0  0  0  0  0  0  0  0  0  0
  -14.2288  -22.2264   32.6134 H   0  0  0  0  0  0  0  0  0  0  0  0
  -11.7677  -21.2972   33.8640 H   0  0  0  0  0  0  0  0  0  0  0  0
  -10.2953  -23.3960   35.0170 H   0  0  0  0  0  0  0  0  0  0  0  0
  -10.0172  -22.0748   33.9344 H   0  0  0  0  0  0  0  0  0  0  0  0
   -9.6852  -26.0195   32.9891 H   0  0  0  0  0  0  0  0  0  0  0  0
   -8.8999  -25.5949   30.4560 H   0  0  0  0  0  0  0  0  0  0  0  0
   -8.1597  -22.1761   32.4137 H   0  0  0  0  0  0  0  0  0  0  0  0
  -11.4774  -19.7682   31.7666 H   0  0  0  0  0  0  0  0  0  0  0  0
  -10.2923  -19.7365   29.6389 H   0  0  0  0  0  0  0  0  0  0  0  0
  -10.4409  -21.5754   28.1031 H   0  0  0  0  0  0  0  0  0  0  0  0
  -10.1077  -23.4358   27.2301 H   0  0  0  0  0  0  0  0  0  0  0  0
   -9.7725  -26.1337   27.2323 H   0  0  0  0  0  0  0  0  0  0  0  0
  -12.8118  -25.2570   29.9176 H   0  0  0  0  0  0  0  0  0  0  0  0
  -13.4254  -23.3694   30.6785 H   0  0  0  0  0  0  0  0  0  0  0  0
  1  2  1  0
  2  3  1  0
  3  4  1  0
  4  5  2  0
  4  6  1  0
  6  7  1  0
  7  8  2  0
  8  9  1  0
  9 10  2  0
 10 11  1  0
  2 12  1  0
 12 13  2  0
 13 14  1  0
 14 15  2  0
 15 16  1  0
 16 17  1  0
 17 18  1  0
 18 19  2  0
 19 20  1  0
 20 21  2  0
 16 22  2  0
 11  7  1  0
 22 12  1  0
 21 17  1  0
  1 23  1  0
  1 24  1  0
  1 25  1  0
  2 26  1  0
  3 27  1  0
  6 28  1  0
  6 29  1  0
  8 30  1  0
  9 31  1  0
 11 32  1  0
 13 33  1  0
 14 34  1  0
 15 35  1  0
 18 36  1  0
 19 37  1  0
 21 38  1  0
 22 39  1  0
M  END
>  <Energy>  (230) 
107.92075612600858

>  <compound_id>  (230) 
8170

>  <target_id>  (230) 
1

>  <reference_id>  (230) 
96

>  <inspiration_ids>  (230) 
[35, 96]

>  <energy_score>  (230) 
23.251519992369992

>  <distance_score>  (230) 
2.626647170211921

>  <path>  (230) 
/opt/xchem-fragalysis-2/maxwin/BulkDock/SCRATCH/511017/C8170-P96/C8170-P96.minimised.mol

>  <scratch_subdir>  (230) 
/opt/xchem-fragalysis-2/maxwin/BulkDock/SCRATCH/511017/C8170-P96

>  <fragmenstein_runtime>  (230) 
5.038627862930298

>  <fragmenstein_outcome>  (230) 
too moved

>  <fragmenstein_mode>  (230) 
expansion

>  <fragmenstein_error>  (230) 


$$$$
C8171-P35
     RDKit          3D

 26 27  0  0  0  0  0  0  0  0999 V2000
  -11.7848  -24.5526   25.6198 C   0  0  0  0  0  0  0  0  0  0  0  0
  -11.8864  -24.2440   27.0087 N   0  0  0  0  0  0  0  0  0  0  0  0
  -12.2188  -25.1127   27.9966 C   0  0  0  0  0  0  0  0  0  0  0  0
  -12.3782  -24.4795   29.1310 N   0  0  0  0  0  0  0  0  0  0  0  0
  -12.0752  -23.1474   28.8597 C   0  0  0  0  0  0  0  0  0  0  0  0
  -11.7839  -22.2120   29.9303 C   0  0  0  0  0  0  0  0  0  0  0  0
  -11.3884  -21.1362   29.7854 O   0  0  0  0  0  0  0  0  0  0  0  0
  -12.0187  -23.0048   31.1855 N   0  0  0  0  0  0  0  0  0  0  0  0
  -11.7365  -22.6977   32.5277 C   0  0  0  0  0  0  0  0  0  0  0  0
  -10.7490  -23.7934   32.7612 C   0  0  0  0  0  0  0  0  0  0  0  0
  -10.3137  -24.8277   31.9351 C   0  0  0  0  0  0  0  0  0  0  0  0
   -9.5709  -25.6746   32.7406 C   0  0  0  0  0  0  0  0  0  0  0  0
   -9.4966  -25.2042   33.9775 N   0  0  0  0  0  0  0  0  0  0  0  0
  -10.0866  -23.9948   33.9224 N   0  0  0  0  0  0  0  0  0  0  0  0
  -11.7763  -22.9991   27.5357 C   0  0  0  0  0  0  0  0  0  0  0  0
  -12.6333  -24.0654   25.1332 H   0  0  0  0  0  0  0  0  0  0  0  0
  -11.8308  -25.6345   25.4727 H   0  0  0  0  0  0  0  0  0  0  0  0
  -10.8527  -24.1572   25.2222 H   0  0  0  0  0  0  0  0  0  0  0  0
  -12.3620  -26.1742   27.8397 H   0  0  0  0  0  0  0  0  0  0  0  0
  -12.4550  -23.8981   30.9465 H   0  0  0  0  0  0  0  0  0  0  0  0
  -12.6417  -22.7930   33.1266 H   0  0  0  0  0  0  0  0  0  0  0  0
  -11.2900  -21.7050   32.6156 H   0  0  0  0  0  0  0  0  0  0  0  0
  -10.5562  -25.0037   30.8983 H   0  0  0  0  0  0  0  0  0  0  0  0
   -9.0848  -26.6112   32.5001 H   0  0  0  0  0  0  0  0  0  0  0  0
  -10.0816  -23.4239   34.7607 H   0  0  0  0  0  0  0  0  0  0  0  0
  -11.4689  -22.1344   26.9710 H   0  0  0  0  0  0  0  0  0  0  0  0
  1  2  1  0
  2  3  1  0
  3  4  2  0
  4  5  1  0
  5  6  1  0
  6  7  2  0
  6  8  1  0
  8  9  1  0
  9 10  1  0
 10 11  2  0
 11 12  1  0
 12 13  2  0
 13 14  1  0
  5 15  2  0
 15  2  1  0
 14 10  1  0
  1 16  1  0
  1 17  1  0
  1 18  1  0
  3 19  1  0
  8 20  1  0
  9 21  1  0
  9 22  1  0
 11 23  1  0
 12 24  1  0
 14 25  1  0
 15 26  1  0
M  END
>  <Energy>  (231) 
24.417970447356094

>  <compound_id>  (231) 
8171

>  <target_id>  (231) 
1

>  <reference_id>  (231) 
35

>  <inspiration_ids>  (231) 
[35, 96]

>  <energy_score>  (231) 
7.444415590351753

>  <distance_score>  (231) 
2.31585585260823

>  <path>  (231) 
/opt/xchem-fragalysis-2/maxwin/BulkDock/SCRATCH/511017/C8171-P35/C8171-P35.minimised.mol

>  <scratch_subdir>  (231) 
/opt/xchem-fragalysis-2/maxwin/BulkDock/SCRATCH/511017/C8171-P35

>  <fragmenstein_runtime>  (231) 
1.742356538772583

>  <fragmenstein_outcome>  (231) 
too moved

>  <fragmenstein_mode>  (231) 
expansion

>  <fragmenstein_error>  (231) 


$$$$
C8171-P96
     RDKit          3D

 26 27  0  0  0  0  0  0  0  0999 V2000
  -10.9778  -24.8901   26.3176 C   0  0  0  0  0  0  0  0  0  0  0  0
  -11.3125  -24.3418   27.5957 N   0  0  0  0  0  0  0  0  0  0  0  0
  -11.5539  -25.0837   28.7092 C   0  0  0  0  0  0  0  0  0  0  0  0
  -11.8162  -24.3136   29.7342 N   0  0  0  0  0  0  0  0  0  0  0  0
  -11.7176  -23.0055   29.2516 C   0  0  0  0  0  0  0  0  0  0  0  0
  -11.6772  -21.8729   30.1761 C   0  0  0  0  0  0  0  0  0  0  0  0
  -11.5040  -20.7675   29.8667 O   0  0  0  0  0  0  0  0  0  0  0  0
  -11.8057  -22.5034   31.5538 N   0  0  0  0  0  0  0  0  0  0  0  0
  -11.6565  -21.9360   32.8459 C   0  0  0  0  0  0  0  0  0  0  0  0
  -10.4222  -22.6498   33.2715 C   0  0  0  0  0  0  0  0  0  0  0  0
   -9.3742  -23.1637   32.5268 C   0  0  0  0  0  0  0  0  0  0  0  0
   -8.6057  -23.8954   33.4263 C   0  0  0  0  0  0  0  0  0  0  0  0
   -9.0813  -23.8177   34.6671 N   0  0  0  0  0  0  0  0  0  0  0  0
  -10.1652  -23.0159   34.5564 N   0  0  0  0  0  0  0  0  0  0  0  0
  -11.4123  -23.0230   27.9119 C   0  0  0  0  0  0  0  0  0  0  0  0
  -10.6603  -24.0852   25.6521 H   0  0  0  0  0  0  0  0  0  0  0  0
  -11.8650  -25.3992   25.9369 H   0  0  0  0  0  0  0  0  0  0  0  0
  -10.1654  -25.6045   26.4528 H   0  0  0  0  0  0  0  0  0  0  0  0
  -11.5312  -26.1656   28.7180 H   0  0  0  0  0  0  0  0  0  0  0  0
  -11.8700  -23.5175   31.4586 H   0  0  0  0  0  0  0  0  0  0  0  0
  -12.5251  -22.1903   33.4569 H   0  0  0  0  0  0  0  0  0  0  0  0
  -11.5100  -20.8558   32.7789 H   0  0  0  0  0  0  0  0  0  0  0  0
   -9.2207  -23.0789   31.4613 H   0  0  0  0  0  0  0  0  0  0  0  0
   -7.7110  -24.4741   33.2389 H   0  0  0  0  0  0  0  0  0  0  0  0
  -10.7112  -22.8061   35.3981 H   0  0  0  0  0  0  0  0  0  0  0  0
  -11.2043  -22.2247   27.2130 H   0  0  0  0  0  0  0  0  0  0  0  0
  1  2  1  0
  2  3  1  0
  3  4  2  0
  4  5  1  0
  5  6  1  0
  6  7  2  0
  6  8  1  0
  8  9  1  0
  9 10  1  0
 10 11  2  0
 11 12  1  0
 12 13  2  0
 13 14  1  0
  5 15  2  0
 15  2  1  0
 14 10  1  0
  1 16  1  0
  1 17  1  0
  1 18  1  0
  3 19  1  0
  8 20  1  0
  9 21  1  0
  9 22  1  0
 11 23  1  0
 12 24  1  0
 14 25  1  0
 15 26  1  0
M  END
>  <Energy>  (232) 
17.835956428895212

>  <compound_id>  (232) 
8171

>  <target_id>  (232) 
1

>  <reference_id>  (232) 
96

>  <inspiration_ids>  (232) 
[35, 96]

>  <energy_score>  (232) 
0.862401571890004

>  <distance_score>  (232) 
2.2213049060142005

>  <path>  (232) 
/opt/xchem-fragalysis-2/maxwin/BulkDock/SCRATCH/511017/C8171-P96/C8171-P96.minimised.mol

>  <scratch_subdir>  (232) 
/opt/xchem-fragalysis-2/maxwin/BulkDock/SCRATCH/511017/C8171-P96

>  <fragmenstein_runtime>  (232) 
2.3575429916381836

>  <fragmenstein_outcome>  (232) 
too moved

>  <fragmenstein_mode>  (232) 
expansion

>  <fragmenstein_error>  (232) 


$$$$
C8173-P35
     RDKit          3D

 45 46  0  0  0  0  0  0  0  0999 V2000
  -11.0715  -23.5169   27.5318 C   0  0  0  0  0  0  0  0  0  0  0  0
  -11.7070  -24.8179   27.3321 N   0  0  0  0  0  0  0  0  0  0  0  0
  -12.7672  -24.1895   28.2472 C   0  0  0  0  0  0  0  0  0  0  0  0
  -12.8394  -24.4496   29.7635 C   0  0  0  0  0  0  0  0  0  0  0  0
  -12.0746  -23.5981   30.6179 N   0  0  0  0  0  0  0  0  0  0  0  0
  -12.4150  -22.9522   31.8448 C   0  0  0  0  0  0  0  0  0  0  0  0
  -13.4524  -22.8913   32.4331 O   0  0  0  0  0  0  0  0  0  0  0  0
  -11.1499  -22.3635   32.4500 C   0  0  0  0  0  0  0  0  0  0  0  0
  -10.2617  -23.3690   33.1964 C   0  0  0  0  0  0  0  0  0  0  0  0
   -9.9833  -24.7178   32.5803 C   0  0  0  0  0  0  0  0  0  0  0  0
   -9.6577  -25.2219   31.3352 C   0  0  0  0  0  0  0  0  0  0  0  0
   -9.7068  -26.6231   31.4532 C   0  0  0  0  0  0  0  0  0  0  0  0
   -9.9901  -26.9957   32.6948 N   0  0  0  0  0  0  0  0  0  0  0  0
   -9.9082  -25.8416   33.3662 N   0  0  0  0  0  0  0  0  0  0  0  0
  -11.3496  -26.1056   27.8056 C   0  0  0  0  0  0  0  0  0  0  0  0
  -10.4847  -26.4450   28.5653 O   0  0  0  0  0  0  0  0  0  0  0  0
  -12.2060  -27.1379   27.0952 C   0  0  0  0  0  0  0  0  0  0  0  0
  -12.5900  -28.2677   28.0356 C   0  0  0  0  0  0  0  0  0  0  0  0
  -13.4471  -27.8066   29.1590 C   0  0  0  0  0  0  0  0  0  0  0  0
  -13.2085  -27.8929   30.5135 C   0  0  0  0  0  0  0  0  0  0  0  0
  -14.2355  -27.2087   31.1022 N   0  0  0  0  0  0  0  0  0  0  0  0
  -15.0817  -26.8037   30.1095 C   0  0  0  0  0  0  0  0  0  0  0  0
  -14.6191  -27.1235   28.9223 N   0  0  0  0  0  0  0  0  0  0  0  0
  -10.1201  -23.6901   27.0334 H   0  0  0  0  0  0  0  0  0  0  0  0
  -10.7425  -23.2590   28.5388 H   0  0  0  0  0  0  0  0  0  0  0  0
  -11.5270  -22.6984   26.9595 H   0  0  0  0  0  0  0  0  0  0  0  0
  -13.6530  -24.7265   27.8759 H   0  0  0  0  0  0  0  0  0  0  0  0
  -13.0149  -23.1370   28.0635 H   0  0  0  0  0  0  0  0  0  0  0  0
  -12.4903  -25.4461   30.0030 H   0  0  0  0  0  0  0  0  0  0  0  0
  -13.8792  -24.3499   30.0887 H   0  0  0  0  0  0  0  0  0  0  0  0
  -11.0869  -23.5104   30.4656 H   0  0  0  0  0  0  0  0  0  0  0  0
  -10.6006  -21.8377   31.6663 H   0  0  0  0  0  0  0  0  0  0  0  0
  -11.4528  -21.5716   33.1478 H   0  0  0  0  0  0  0  0  0  0  0  0
  -10.7284  -23.5323   34.1742 H   0  0  0  0  0  0  0  0  0  0  0  0
   -9.3084  -22.8789   33.4202 H   0  0  0  0  0  0  0  0  0  0  0  0
   -9.4716  -24.7218   30.4034 H   0  0  0  0  0  0  0  0  0  0  0  0
   -9.5654  -27.3742   30.6866 H   0  0  0  0  0  0  0  0  0  0  0  0
   -9.8233  -25.8951   34.3700 H   0  0  0  0  0  0  0  0  0  0  0  0
  -13.0979  -26.6813   26.6514 H   0  0  0  0  0  0  0  0  0  0  0  0
  -11.5956  -27.5287   26.2740 H   0  0  0  0  0  0  0  0  0  0  0  0
  -11.6911  -28.7501   28.4349 H   0  0  0  0  0  0  0  0  0  0  0  0
  -13.1389  -29.0363   27.4810 H   0  0  0  0  0  0  0  0  0  0  0  0
  -12.3856  -28.2991   31.0851 H   0  0  0  0  0  0  0  0  0  0  0  0
  -14.3201  -26.9691   32.0819 H   0  0  0  0  0  0  0  0  0  0  0  0
  -15.9879  -26.2510   30.3162 H   0  0  0  0  0  0  0  0  0  0  0  0
  1  2  1  0
  2  3  1  0
  3  4  1  0
  4  5  1  0
  5  6  1  0
  6  7  2  0
  6  8  1  0
  8  9  1  0
  9 10  1  0
 10 11  2  0
 11 12  1  0
 12 13  2  0
 13 14  1  0
  2 15  1  0
 15 16  2  0
 15 17  1  0
 17 18  1  0
 18 19  1  0
 19 20  2  0
 20 21  1  0
 21 22  1  0
 22 23  2  0
 14 10  1  0
 23 19  1  0
  1 24  1  0
  1 25  1  0
  1 26  1  0
  3 27  1  0
  3 28  1  0
  4 29  1  0
  4 30  1  0
  5 31  1  0
  8 32  1  0
  8 33  1  0
  9 34  1  0
  9 35  1  0
 11 36  1  0
 12 37  1  0
 14 38  1  0
 17 39  1  0
 17 40  1  0
 18 41  1  0
 18 42  1  0
 20 43  1  0
 21 44  1  0
 22 45  1  0
M  END
>  <Energy>  (233) 
71.305060861120566

>  <compound_id>  (233) 
8173

>  <target_id>  (233) 
1

>  <reference_id>  (233) 
35

>  <inspiration_ids>  (233) 
[35, 96]

>  <energy_score>  (233) 
57.268322374457284

>  <distance_score>  (233) 
3.9242853737955357

>  <path>  (233) 
/opt/xchem-fragalysis-2/maxwin/BulkDock/SCRATCH/511017/C8173-P35/C8173-P35.minimised.mol

>  <scratch_subdir>  (233) 
/opt/xchem-fragalysis-2/maxwin/BulkDock/SCRATCH/511017/C8173-P35

>  <fragmenstein_runtime>  (233) 
8.951051712036133

>  <fragmenstein_outcome>  (233) 
too moved

>  <fragmenstein_mode>  (233) 
expansion

>  <fragmenstein_error>  (233) 


$$$$
C8173-P96
     RDKit          3D

 45 46  0  0  0  0  0  0  0  0999 V2000
   -9.5760  -23.5353   28.4432 C   0  0  0  0  0  0  0  0  0  0  0  0
  -10.6950  -24.3947   28.0359 N   0  0  0  0  0  0  0  0  0  0  0  0
  -11.4870  -23.1074   28.2971 C   0  0  0  0  0  0  0  0  0  0  0  0
  -12.3712  -23.0523   29.5579 C   0  0  0  0  0  0  0  0  0  0  0  0
  -11.7847  -22.5113   30.7320 N   0  0  0  0  0  0  0  0  0  0  0  0
  -11.3044  -21.2062   31.0183 C   0  0  0  0  0  0  0  0  0  0  0  0
  -11.1962  -20.2420   30.3174 O   0  0  0  0  0  0  0  0  0  0  0  0
  -10.9038  -21.0211   32.4839 C   0  0  0  0  0  0  0  0  0  0  0  0
  -11.0875  -22.1443   33.4885 C   0  0  0  0  0  0  0  0  0  0  0  0
  -10.0356  -23.1990   33.3871 C   0  0  0  0  0  0  0  0  0  0  0  0
   -9.5742  -24.0286   32.3860 C   0  0  0  0  0  0  0  0  0  0  0  0
   -8.6580  -24.8894   33.0081 C   0  0  0  0  0  0  0  0  0  0  0  0
   -8.5671  -24.6517   34.3143 N   0  0  0  0  0  0  0  0  0  0  0  0
   -9.3139  -23.5537   34.4924 N   0  0  0  0  0  0  0  0  0  0  0  0
  -11.3086  -25.4938   28.6966 C   0  0  0  0  0  0  0  0  0  0  0  0
  -11.1270  -25.9435   29.7954 O   0  0  0  0  0  0  0  0  0  0  0  0
  -12.4140  -26.0244   27.7801 C   0  0  0  0  0  0  0  0  0  0  0  0
  -13.1067  -27.2581   28.3333 C   0  0  0  0  0  0  0  0  0  0  0  0
  -13.6899  -27.0462   29.6918 C   0  0  0  0  0  0  0  0  0  0  0  0
  -13.4338  -27.7697   30.8368 C   0  0  0  0  0  0  0  0  0  0  0  0
  -14.0997  -27.1179   31.8321 N   0  0  0  0  0  0  0  0  0  0  0  0
  -14.7377  -26.0502   31.2715 C   0  0  0  0  0  0  0  0  0  0  0  0
  -14.5288  -25.9880   29.9760 N   0  0  0  0  0  0  0  0  0  0  0  0
   -8.7684  -24.2598   28.6018 H   0  0  0  0  0  0  0  0  0  0  0  0
   -9.6286  -23.0593   29.4280 H   0  0  0  0  0  0  0  0  0  0  0  0
   -9.2457  -22.8776   27.6361 H   0  0  0  0  0  0  0  0  0  0  0  0
  -11.0467  -22.1216   28.0506 H   0  0  0  0  0  0  0  0  0  0  0  0
  -12.2174  -23.1893   27.4770 H   0  0  0  0  0  0  0  0  0  0  0  0
  -12.8497  -23.9928   29.8212 H   0  0  0  0  0  0  0  0  0  0  0  0
  -13.1628  -22.3538   29.3532 H   0  0  0  0  0  0  0  0  0  0  0  0
  -11.8099  -23.0454   31.5845 H   0  0  0  0  0  0  0  0  0  0  0  0
   -9.8576  -20.7075   32.4799 H   0  0  0  0  0  0  0  0  0  0  0  0
  -11.4987  -20.1681   32.8374 H   0  0  0  0  0  0  0  0  0  0  0  0
  -12.0845  -22.5948   33.4249 H   0  0  0  0  0  0  0  0  0  0  0  0
  -11.0552  -21.6993   34.4890 H   0  0  0  0  0  0  0  0  0  0  0  0
   -9.8686  -24.0821   31.3519 H   0  0  0  0  0  0  0  0  0  0  0  0
   -8.0852  -25.6974   32.5725 H   0  0  0  0  0  0  0  0  0  0  0  0
   -9.3988  -23.1621   35.4256 H   0  0  0  0  0  0  0  0  0  0  0  0
  -13.1652  -25.2362   27.6497 H   0  0  0  0  0  0  0  0  0  0  0  0
  -11.9961  -26.2246   26.7921 H   0  0  0  0  0  0  0  0  0  0  0  0
  -12.3941  -28.0907   28.3763 H   0  0  0  0  0  0  0  0  0  0  0  0
  -13.9088  -27.5616   27.6504 H   0  0  0  0  0  0  0  0  0  0  0  0
  -12.8214  -28.6407   31.0232 H   0  0  0  0  0  0  0  0  0  0  0  0
  -14.1323  -27.3870   32.8051 H   0  0  0  0  0  0  0  0  0  0  0  0
  -15.3412  -25.3683   31.8556 H   0  0  0  0  0  0  0  0  0  0  0  0
  1  2  1  0
  2  3  1  0
  3  4  1  0
  4  5  1  0
  5  6  1  0
  6  7  2  0
  6  8  1  0
  8  9  1  0
  9 10  1  0
 10 11  2  0
 11 12  1  0
 12 13  2  0
 13 14  1  0
  2 15  1  0
 15 16  2  0
 15 17  1  0
 17 18  1  0
 18 19  1  0
 19 20  2  0
 20 21  1  0
 21 22  1  0
 22 23  2  0
 14 10  1  0
 23 19  1  0
  1 24  1  0
  1 25  1  0
  1 26  1  0
  3 27  1  0
  3 28  1  0
  4 29  1  0
  4 30  1  0
  5 31  1  0
  8 32  1  0
  8 33  1  0
  9 34  1  0
  9 35  1  0
 11 36  1  0
 12 37  1  0
 14 38  1  0
 17 39  1  0
 17 40  1  0
 18 41  1  0
 18 42  1  0
 20 43  1  0
 21 44  1  0
 22 45  1  0
M  END
>  <Energy>  (234) 
69.35646162867657

>  <compound_id>  (234) 
8173

>  <target_id>  (234) 
1

>  <reference_id>  (234) 
96

>  <inspiration_ids>  (234) 
[35, 96]

>  <energy_score>  (234) 
55.3197231420113

>  <distance_score>  (234) 
3.719725539058149

>  <path>  (234) 
/opt/xchem-fragalysis-2/maxwin/BulkDock/SCRATCH/511017/C8173-P96/C8173-P96.minimised.mol

>  <scratch_subdir>  (234) 
/opt/xchem-fragalysis-2/maxwin/BulkDock/SCRATCH/511017/C8173-P96

>  <fragmenstein_runtime>  (234) 
10.195034265518188

>  <fragmenstein_outcome>  (234) 
too moved

>  <fragmenstein_mode>  (234) 
expansion

>  <fragmenstein_error>  (234) 


$$$$
C8174-P35
     RDKit          3D

 48 49  0  0  0  0  0  0  0  0999 V2000
   -9.4345  -16.9129   26.5195 C   0  0  0  0  0  0  0  0  0  0  0  0
   -9.2570  -18.4436   27.5736 C   0  0  0  0  0  0  0  0  0  0  0  0
   -8.1613  -18.0080   28.3016 C   0  0  0  0  0  0  0  0  0  0  0  0
   -9.5457  -20.5501   27.7453 C   0  0  0  0  0  0  0  0  0  0  0  0
  -10.9517  -21.6821   27.7361 C   0  0  0  0  0  0  0  0  0  0  0  0
  -11.9724  -21.4078   28.9061 C   0  0  0  0  0  0  0  0  0  0  0  0
  -11.5831  -21.6514   30.2815 N   0  0  0  0  0  0  0  0  0  0  0  0
  -12.3636  -22.0378   31.4282 C   0  0  0  0  0  0  0  0  0  0  0  0
  -13.5181  -22.3328   31.5223 O   0  0  0  0  0  0  0  0  0  0  0  0
  -11.4768  -22.0804   32.6735 C   0  0  0  0  0  0  0  0  0  0  0  0
  -10.7579  -23.3765   32.7314 C   0  0  0  0  0  0  0  0  0  0  0  0
  -10.5648  -24.3840   31.8134 C   0  0  0  0  0  0  0  0  0  0  0  0
   -9.8277  -25.3662   32.4729 C   0  0  0  0  0  0  0  0  0  0  0  0
   -9.6212  -25.0447   33.7429 N   0  0  0  0  0  0  0  0  0  0  0  0
  -10.1429  -23.8128   33.8631 N   0  0  0  0  0  0  0  0  0  0  0  0
  -10.9111  -23.1198   28.0064 N   0  0  0  0  0  0  0  0  0  0  0  0
  -11.0438  -24.2407   27.1367 C   0  0  0  0  0  0  0  0  0  0  0  0
  -11.1378  -24.3009   25.9474 O   0  0  0  0  0  0  0  0  0  0  0  0
  -11.1611  -25.4143   28.0123 C   0  0  0  0  0  0  0  0  0  0  0  0
  -10.4192  -26.5512   28.2357 C   0  0  0  0  0  0  0  0  0  0  0  0
  -11.0006  -27.1352   29.3327 N   0  0  0  0  0  0  0  0  0  0  0  0
  -10.5055  -28.2420   30.0984 C   0  0  0  0  0  0  0  0  0  0  0  0
  -12.1276  -26.4472   29.6523 C   0  0  0  0  0  0  0  0  0  0  0  0
  -12.2346  -25.3846   28.9020 N   0  0  0  0  0  0  0  0  0  0  0  0
   -9.8920  -17.0613   25.5477 H   0  0  0  0  0  0  0  0  0  0  0  0
  -10.1510  -16.1911   26.9168 H   0  0  0  0  0  0  0  0  0  0  0  0
   -8.5508  -16.2755   26.4698 H   0  0  0  0  0  0  0  0  0  0  0  0
  -10.2210  -17.9646   27.4843 H   0  0  0  0  0  0  0  0  0  0  0  0
   -7.6346  -17.1169   28.0059 H   0  0  0  0  0  0  0  0  0  0  0  0
   -7.8687  -18.9658   28.0181 H   0  0  0  0  0  0  0  0  0  0  0  0
   -7.9318  -18.2740   29.2663 H   0  0  0  0  0  0  0  0  0  0  0  0
   -8.5834  -21.0977   27.4805 H   0  0  0  0  0  0  0  0  0  0  0  0
   -9.8825  -20.5912   28.8257 H   0  0  0  0  0  0  0  0  0  0  0  0
  -11.4441  -21.5827   26.7717 H   0  0  0  0  0  0  0  0  0  0  0  0
  -12.4063  -20.4257   28.9045 H   0  0  0  0  0  0  0  0  0  0  0  0
  -12.7756  -22.1348   28.7680 H   0  0  0  0  0  0  0  0  0  0  0  0
  -10.6586  -21.3926   30.5859 H   0  0  0  0  0  0  0  0  0  0  0  0
  -12.1190  -21.9512   33.5529 H   0  0  0  0  0  0  0  0  0  0  0  0
  -10.7716  -21.2418   32.6690 H   0  0  0  0  0  0  0  0  0  0  0  0
  -10.9205  -24.4013   30.8025 H   0  0  0  0  0  0  0  0  0  0  0  0
   -9.4341  -26.3017   32.1063 H   0  0  0  0  0  0  0  0  0  0  0  0
  -10.0791  -23.3543   34.7664 H   0  0  0  0  0  0  0  0  0  0  0  0
  -10.9426  -23.4429   28.9690 H   0  0  0  0  0  0  0  0  0  0  0  0
   -9.5250  -26.9565   27.7896 H   0  0  0  0  0  0  0  0  0  0  0  0
  -10.5645  -27.9990   31.1604 H   0  0  0  0  0  0  0  0  0  0  0  0
  -11.1490  -29.0987   29.8946 H   0  0  0  0  0  0  0  0  0  0  0  0
   -9.4718  -28.4442   29.8250 H   0  0  0  0  0  0  0  0  0  0  0  0
  -12.7950  -26.7198   30.4622 H   0  0  0  0  0  0  0  0  0  0  0  0
  1  2  1  0
  2  3  1  0
  2  4  1  0
  4  5  1  0
  5  6  1  0
  6  7  1  0
  7  8  1  0
  8  9  2  0
  8 10  1  0
 10 11  1  0
 11 12  2  0
 12 13  1  0
 13 14  2  0
 14 15  1  0
  5 16  1  0
 16 17  1  0
 17 18  2  0
 17 19  1  0
 19 20  2  0
 20 21  1  0
 21 22  1  0
 21 23  1  0
 23 24  2  0
 15 11  1  0
 24 19  1  0
  1 25  1  0
  1 26  1  0
  1 27  1  0
  2 28  1  0
  3 29  1  0
  3 30  1  0
  3 31  1  0
  4 32  1  0
  4 33  1  0
  5 34  1  0
  6 35  1  0
  6 36  1  0
  7 37  1  0
 10 38  1  0
 10 39  1  0
 12 40  1  0
 13 41  1  0
 15 42  1  0
 16 43  1  0
 20 44  1  0
 22 45  1  0
 22 46  1  0
 22 47  1  0
 23 48  1  0
M  END
>  <Energy>  (235) 
385.61715875495202

>  <compound_id>  (235) 
8174

>  <target_id>  (235) 
1

>  <reference_id>  (235) 
35

>  <inspiration_ids>  (235) 
[35, 96]

>  <energy_score>  (235) 
289.8111183169891

>  <distance_score>  (235) 
2.9548015509664833

>  <path>  (235) 
/opt/xchem-fragalysis-2/maxwin/BulkDock/SCRATCH/511017/C8174-P35/C8174-P35.minimised.mol

>  <scratch_subdir>  (235) 
/opt/xchem-fragalysis-2/maxwin/BulkDock/SCRATCH/511017/C8174-P35

>  <fragmenstein_runtime>  (235) 
15.222443103790283

>  <fragmenstein_outcome>  (235) 
too moved

>  <fragmenstein_mode>  (235) 
expansion

>  <fragmenstein_error>  (235) 


$$$$
C8174-P96
     RDKit          3D

 48 49  0  0  0  0  0  0  0  0999 V2000
   -9.4015  -24.2309   28.7846 C   0  0  0  0  0  0  0  0  0  0  0  0
  -10.2801  -24.0461   27.5385 C   0  0  0  0  0  0  0  0  0  0  0  0
  -10.5965  -25.3998   26.9117 C   0  0  0  0  0  0  0  0  0  0  0  0
  -11.5679  -23.2059   27.6602 C   0  0  0  0  0  0  0  0  0  0  0  0
  -12.1814  -23.0963   29.0554 C   0  0  0  0  0  0  0  0  0  0  0  0
  -11.5228  -21.9291   29.7823 C   0  0  0  0  0  0  0  0  0  0  0  0
  -11.6531  -21.9824   31.1883 N   0  0  0  0  0  0  0  0  0  0  0  0
  -11.3305  -21.0272   32.1930 C   0  0  0  0  0  0  0  0  0  0  0  0
  -10.9409  -19.9028   32.1038 O   0  0  0  0  0  0  0  0  0  0  0  0
  -11.4584  -21.7179   33.5390 C   0  0  0  0  0  0  0  0  0  0  0  0
  -10.3111  -22.6784   33.6607 C   0  0  0  0  0  0  0  0  0  0  0  0
   -9.4057  -23.2434   32.7810 C   0  0  0  0  0  0  0  0  0  0  0  0
   -8.5569  -24.0278   33.5733 C   0  0  0  0  0  0  0  0  0  0  0  0
   -8.9092  -23.9913   34.8581 N   0  0  0  0  0  0  0  0  0  0  0  0
   -9.9352  -23.1242   34.8886 N   0  0  0  0  0  0  0  0  0  0  0  0
  -12.2412  -24.4074   29.6537 N   0  0  0  0  0  0  0  0  0  0  0  0
  -12.8549  -24.8595   30.8431 C   0  0  0  0  0  0  0  0  0  0  0  0
  -13.4194  -24.2601   31.7079 O   0  0  0  0  0  0  0  0  0  0  0  0
  -12.6759  -26.3157   30.8614 C   0  0  0  0  0  0  0  0  0  0  0  0
  -12.9903  -27.2150   31.8510 C   0  0  0  0  0  0  0  0  0  0  0  0
  -12.4766  -28.4020   31.4209 N   0  0  0  0  0  0  0  0  0  0  0  0
  -12.3861  -29.6050   32.2004 C   0  0  0  0  0  0  0  0  0  0  0  0
  -12.0156  -28.2369   30.1503 C   0  0  0  0  0  0  0  0  0  0  0  0
  -12.0875  -26.9811   29.7839 N   0  0  0  0  0  0  0  0  0  0  0  0
   -8.9575  -23.2827   29.0929 H   0  0  0  0  0  0  0  0  0  0  0  0
   -9.9095  -24.6658   29.6440 H   0  0  0  0  0  0  0  0  0  0  0  0
   -8.5755  -24.9173   28.5812 H   0  0  0  0  0  0  0  0  0  0  0  0
   -9.6707  -23.5043   26.8107 H   0  0  0  0  0  0  0  0  0  0  0  0
  -10.8918  -25.2645   25.8691 H   0  0  0  0  0  0  0  0  0  0  0  0
   -9.7212  -26.0536   26.9331 H   0  0  0  0  0  0  0  0  0  0  0  0
  -11.4126  -25.9261   27.4072 H   0  0  0  0  0  0  0  0  0  0  0  0
  -11.3401  -22.1998   27.2906 H   0  0  0  0  0  0  0  0  0  0  0  0
  -12.3233  -23.6021   26.9687 H   0  0  0  0  0  0  0  0  0  0  0  0
  -13.2194  -22.8295   29.0144 H   0  0  0  0  0  0  0  0  0  0  0  0
  -10.4541  -21.8967   29.5848 H   0  0  0  0  0  0  0  0  0  0  0  0
  -11.8961  -20.9630   29.4311 H   0  0  0  0  0  0  0  0  0  0  0  0
  -11.8739  -22.8689   31.6335 H   0  0  0  0  0  0  0  0  0  0  0  0
  -11.4387  -20.9600   34.3285 H   0  0  0  0  0  0  0  0  0  0  0  0
  -12.4185  -22.2400   33.6131 H   0  0  0  0  0  0  0  0  0  0  0  0
   -9.3290  -23.0968   31.7148 H   0  0  0  0  0  0  0  0  0  0  0  0
   -7.6976  -24.6162   33.2727 H   0  0  0  0  0  0  0  0  0  0  0  0
  -10.3936  -22.9115   35.7766 H   0  0  0  0  0  0  0  0  0  0  0  0
  -11.9327  -25.2133   29.1154 H   0  0  0  0  0  0  0  0  0  0  0  0
  -13.4693  -27.0960   32.8103 H   0  0  0  0  0  0  0  0  0  0  0  0
  -11.8218  -30.3615   31.6491 H   0  0  0  0  0  0  0  0  0  0  0  0
  -13.3985  -29.9665   32.3974 H   0  0  0  0  0  0  0  0  0  0  0  0
  -11.8746  -29.3771   33.1386 H   0  0  0  0  0  0  0  0  0  0  0  0
  -11.6100  -29.0489   29.5598 H   0  0  0  0  0  0  0  0  0  0  0  0
  1  2  1  0
  2  3  1  0
  2  4  1  0
  4  5  1  0
  5  6  1  0
  6  7  1  0
  7  8  1  0
  8  9  2  0
  8 10  1  0
 10 11  1  0
 11 12  2  0
 12 13  1  0
 13 14  2  0
 14 15  1  0
  5 16  1  0
 16 17  1  0
 17 18  2  0
 17 19  1  0
 19 20  2  0
 20 21  1  0
 21 22  1  0
 21 23  1  0
 23 24  2  0
 15 11  1  0
 24 19  1  0
  1 25  1  0
  1 26  1  0
  1 27  1  0
  2 28  1  0
  3 29  1  0
  3 30  1  0
  3 31  1  0
  4 32  1  0
  4 33  1  0
  5 34  1  0
  6 35  1  0
  6 36  1  0
  7 37  1  0
 10 38  1  0
 10 39  1  0
 12 40  1  0
 13 41  1  0
 15 42  1  0
 16 43  1  0
 20 44  1  0
 22 45  1  0
 22 46  1  0
 22 47  1  0
 23 48  1  0
M  END
>  <Energy>  (236) 
66.083963011535005

>  <compound_id>  (236) 
8174

>  <target_id>  (236) 
1

>  <reference_id>  (236) 
96

>  <inspiration_ids>  (236) 
[35, 96]

>  <energy_score>  (236) 
-29.722077426432463

>  <distance_score>  (236) 
4.183441056706267

>  <path>  (236) 
/opt/xchem-fragalysis-2/maxwin/BulkDock/SCRATCH/511017/C8174-P96/C8174-P96.minimised.mol

>  <scratch_subdir>  (236) 
/opt/xchem-fragalysis-2/maxwin/BulkDock/SCRATCH/511017/C8174-P96

>  <fragmenstein_runtime>  (236) 
11.111879825592041

>  <fragmenstein_outcome>  (236) 
too moved

>  <fragmenstein_mode>  (236) 
expansion

>  <fragmenstein_error>  (236) 


$$$$
C8175-P35
     RDKit          3D

 45 46  0  0  0  0  0  0  0  0999 V2000
  -11.4164  -24.2691   25.5887 C   0  0  0  0  0  0  0  0  0  0  0  0
  -11.8683  -25.6758   25.9131 C   0  0  0  0  0  0  0  0  0  0  0  0
  -12.3863  -25.6937   27.2530 N   0  0  0  0  0  0  0  0  0  0  0  0
  -13.6751  -25.3936   27.5547 C   0  0  0  0  0  0  0  0  0  0  0  0
  -13.7944  -25.0561   28.8099 N   0  0  0  0  0  0  0  0  0  0  0  0
  -12.5337  -25.2443   29.3417 C   0  0  0  0  0  0  0  0  0  0  0  0
  -12.1848  -24.7088   30.6330 C   0  0  0  0  0  0  0  0  0  0  0  0
  -11.1859  -24.9560   31.1735 O   0  0  0  0  0  0  0  0  0  0  0  0
  -13.3093  -23.7414   31.0166 N   0  0  0  0  0  0  0  0  0  0  0  0
  -13.4016  -22.8101   32.0875 C   0  0  0  0  0  0  0  0  0  0  0  0
  -14.7697  -22.1699   32.2368 C   0  0  0  0  0  0  0  0  0  0  0  0
  -12.2562  -21.8135   31.8666 C   0  0  0  0  0  0  0  0  0  0  0  0
  -12.0665  -20.9058   32.9577 N   0  0  0  0  0  0  0  0  0  0  0  0
  -10.7995  -20.1851   33.4482 C   0  0  0  0  0  0  0  0  0  0  0  0
   -9.7310  -20.1548   32.9990 O   0  0  0  0  0  0  0  0  0  0  0  0
  -11.0978  -19.5265   34.7825 C   0  0  0  0  0  0  0  0  0  0  0  0
  -10.3265  -20.3667   35.8153 C   0  0  0  0  0  0  0  0  0  0  0  0
  -10.5228  -21.8191   35.5819 C   0  0  0  0  0  0  0  0  0  0  0  0
  -11.5165  -22.5447   34.9887 C   0  0  0  0  0  0  0  0  0  0  0  0
  -10.7877  -23.4543   34.1790 C   0  0  0  0  0  0  0  0  0  0  0  0
   -9.5583  -23.5994   34.6361 N   0  0  0  0  0  0  0  0  0  0  0  0
   -9.5175  -22.7157   35.6310 N   0  0  0  0  0  0  0  0  0  0  0  0
  -11.6538  -25.7239   28.3965 C   0  0  0  0  0  0  0  0  0  0  0  0
  -10.7616  -23.8849   26.3758 H   0  0  0  0  0  0  0  0  0  0  0  0
  -12.2716  -23.5892   25.5156 H   0  0  0  0  0  0  0  0  0  0  0  0
  -10.8753  -24.2285   24.6448 H   0  0  0  0  0  0  0  0  0  0  0  0
  -11.0895  -26.4358   25.8641 H   0  0  0  0  0  0  0  0  0  0  0  0
  -12.6673  -26.0010   25.2397 H   0  0  0  0  0  0  0  0  0  0  0  0
  -14.4680  -25.3721   26.8171 H   0  0  0  0  0  0  0  0  0  0  0  0
  -14.0802  -23.8360   30.3547 H   0  0  0  0  0  0  0  0  0  0  0  0
  -13.2251  -23.3871   32.9839 H   0  0  0  0  0  0  0  0  0  0  0  0
  -15.5471  -22.9369   32.3206 H   0  0  0  0  0  0  0  0  0  0  0  0
  -14.8224  -21.5511   33.1378 H   0  0  0  0  0  0  0  0  0  0  0  0
  -15.0124  -21.5319   31.3870 H   0  0  0  0  0  0  0  0  0  0  0  0
  -11.3003  -22.3369   31.7529 H   0  0  0  0  0  0  0  0  0  0  0  0
  -12.3513  -21.2956   30.9153 H   0  0  0  0  0  0  0  0  0  0  0  0
  -12.8480  -20.6514   33.5449 H   0  0  0  0  0  0  0  0  0  0  0  0
  -10.7378  -18.4933   34.7739 H   0  0  0  0  0  0  0  0  0  0  0  0
  -12.1667  -19.5047   35.0100 H   0  0  0  0  0  0  0  0  0  0  0  0
  -10.5819  -20.0525   36.8264 H   0  0  0  0  0  0  0  0  0  0  0  0
   -9.2571  -20.1351   35.7093 H   0  0  0  0  0  0  0  0  0  0  0  0
  -12.5482  -22.2507   34.8876 H   0  0  0  0  0  0  0  0  0  0  0  0
  -11.1030  -24.0858   33.3638 H   0  0  0  0  0  0  0  0  0  0  0  0
   -8.7163  -22.6946   36.2424 H   0  0  0  0  0  0  0  0  0  0  0  0
  -10.5877  -25.9060   28.4330 H   0  0  0  0  0  0  0  0  0  0  0  0
  1  2  1  0
  2  3  1  0
  3  4  1  0
  4  5  2  0
  5  6  1  0
  6  7  1  0
  7  8  2  0
  7  9  1  0
  9 10  1  0
 10 11  1  0
 10 12  1  0
 12 13  1  0
 13 14  1  0
 14 15  2  0
 14 16  1  0
 16 17  1  0
 17 18  1  0
 18 19  2  0
 19 20  1  0
 20 21  2  0
 21 22  1  0
  6 23  2  0
 23  3  1  0
 22 18  1  0
  1 24  1  0
  1 25  1  0
  1 26  1  0
  2 27  1  0
  2 28  1  0
  4 29  1  0
  9 30  1  0
 10 31  1  0
 11 32  1  0
 11 33  1  0
 11 34  1  0
 12 35  1  0
 12 36  1  0
 13 37  1  0
 16 38  1  0
 16 39  1  0
 17 40  1  0
 17 41  1  0
 19 42  1  0
 20 43  1  0
 22 44  1  0
 23 45  1  0
M  END
>  <Energy>  (237) 
91.797721246160634

>  <compound_id>  (237) 
8175

>  <target_id>  (237) 
1

>  <reference_id>  (237) 
35

>  <inspiration_ids>  (237) 
[35, 96]

>  <energy_score>  (237) 
30.11786796961144

>  <distance_score>  (237) 
2.5753648678391645

>  <path>  (237) 
/opt/xchem-fragalysis-2/maxwin/BulkDock/SCRATCH/511017/C8175-P35/C8175-P35.minimised.mol

>  <scratch_subdir>  (237) 
/opt/xchem-fragalysis-2/maxwin/BulkDock/SCRATCH/511017/C8175-P35

>  <fragmenstein_runtime>  (237) 
5.630829811096191

>  <fragmenstein_outcome>  (237) 
too moved

>  <fragmenstein_mode>  (237) 
expansion

>  <fragmenstein_error>  (237) 


$$$$
C8175-P96
     RDKit          3D

 45 46  0  0  0  0  0  0  0  0999 V2000
  -13.5143  -27.0422   27.5060 C   0  0  0  0  0  0  0  0  0  0  0  0
  -12.9315  -25.9029   26.6871 C   0  0  0  0  0  0  0  0  0  0  0  0
  -11.9463  -25.1465   27.4098 N   0  0  0  0  0  0  0  0  0  0  0  0
  -10.6210  -25.1057   27.1465 C   0  0  0  0  0  0  0  0  0  0  0  0
  -10.0445  -24.1018   27.7516 N   0  0  0  0  0  0  0  0  0  0  0  0
  -11.0608  -23.4461   28.3971 C   0  0  0  0  0  0  0  0  0  0  0  0
  -10.8916  -22.1082   28.9325 C   0  0  0  0  0  0  0  0  0  0  0  0
  -10.1695  -21.3833   28.3938 O   0  0  0  0  0  0  0  0  0  0  0  0
  -11.8017  -21.8844   30.1286 N   0  0  0  0  0  0  0  0  0  0  0  0
  -12.0909  -20.6996   30.8611 C   0  0  0  0  0  0  0  0  0  0  0  0
  -10.7652  -20.0807   31.3177 C   0  0  0  0  0  0  0  0  0  0  0  0
  -13.0932  -20.8665   32.0288 C   0  0  0  0  0  0  0  0  0  0  0  0
  -12.2369  -21.3909   33.0124 N   0  0  0  0  0  0  0  0  0  0  0  0
  -11.7789  -22.8125   33.2624 C   0  0  0  0  0  0  0  0  0  0  0  0
  -12.0890  -23.8013   32.7498 O   0  0  0  0  0  0  0  0  0  0  0  0
  -10.6948  -22.6750   34.3083 C   0  0  0  0  0  0  0  0  0  0  0  0
   -9.2929  -22.8504   33.7191 C   0  0  0  0  0  0  0  0  0  0  0  0
   -9.2189  -23.9444   32.7537 C   0  0  0  0  0  0  0  0  0  0  0  0
   -9.3621  -23.9545   31.3918 C   0  0  0  0  0  0  0  0  0  0  0  0
   -9.6598  -25.2853   31.0960 C   0  0  0  0  0  0  0  0  0  0  0  0
   -9.5762  -26.0664   32.1762 N   0  0  0  0  0  0  0  0  0  0  0  0
   -9.0961  -25.2453   33.1124 N   0  0  0  0  0  0  0  0  0  0  0  0
  -12.2143  -24.1947   28.3417 C   0  0  0  0  0  0  0  0  0  0  0  0
  -14.2130  -27.6266   26.8993 H   0  0  0  0  0  0  0  0  0  0  0  0
  -14.0593  -26.6609   28.3763 H   0  0  0  0  0  0  0  0  0  0  0  0
  -12.7333  -27.7131   27.8763 H   0  0  0  0  0  0  0  0  0  0  0  0
  -13.7303  -25.2094   26.3972 H   0  0  0  0  0  0  0  0  0  0  0  0
  -12.4887  -26.2710   25.7606 H   0  0  0  0  0  0  0  0  0  0  0  0
  -10.1288  -25.7948   26.4813 H   0  0  0  0  0  0  0  0  0  0  0  0
  -12.3613  -22.7153   30.2876 H   0  0  0  0  0  0  0  0  0  0  0  0
  -12.4429  -20.0632   30.0631 H   0  0  0  0  0  0  0  0  0  0  0  0
  -10.1151  -20.8284   31.7680 H   0  0  0  0  0  0  0  0  0  0  0  0
  -10.8952  -19.2865   32.0547 H   0  0  0  0  0  0  0  0  0  0  0  0
  -10.2452  -19.6707   30.4537 H   0  0  0  0  0  0  0  0  0  0  0  0
  -13.8757  -21.5901   31.7925 H   0  0  0  0  0  0  0  0  0  0  0  0
  -13.5242  -19.9458   32.4183 H   0  0  0  0  0  0  0  0  0  0  0  0
  -11.6965  -20.7557   33.5895 H   0  0  0  0  0  0  0  0  0  0  0  0
  -10.7736  -21.7219   34.8277 H   0  0  0  0  0  0  0  0  0  0  0  0
  -10.8465  -23.3835   35.0845 H   0  0  0  0  0  0  0  0  0  0  0  0
   -8.5735  -23.0327   34.5266 H   0  0  0  0  0  0  0  0  0  0  0  0
   -8.9801  -21.9457   33.1901 H   0  0  0  0  0  0  0  0  0  0  0  0
   -9.3866  -23.1102   30.7323 H   0  0  0  0  0  0  0  0  0  0  0  0
   -9.9400  -25.7168   30.1460 H   0  0  0  0  0  0  0  0  0  0  0  0
   -8.8478  -25.6323   34.0134 H   0  0  0  0  0  0  0  0  0  0  0  0
  -13.2088  -24.0356   28.7230 H   0  0  0  0  0  0  0  0  0  0  0  0
  1  2  1  0
  2  3  1  0
  3  4  1  0
  4  5  2  0
  5  6  1  0
  6  7  1  0
  7  8  2  0
  7  9  1  0
  9 10  1  0
 10 11  1  0
 10 12  1  0
 12 13  1  0
 13 14  1  0
 14 15  2  0
 14 16  1  0
 16 17  1  0
 17 18  1  0
 18 19  2  0
 19 20  1  0
 20 21  2  0
 21 22  1  0
  6 23  2  0
 23  3  1  0
 22 18  1  0
  1 24  1  0
  1 25  1  0
  1 26  1  0
  2 27  1  0
  2 28  1  0
  4 29  1  0
  9 30  1  0
 10 31  1  0
 11 32  1  0
 11 33  1  0
 11 34  1  0
 12 35  1  0
 12 36  1  0
 13 37  1  0
 16 38  1  0
 16 39  1  0
 17 40  1  0
 17 41  1  0
 19 42  1  0
 20 43  1  0
 22 44  1  0
 23 45  1  0
M  END
>  <Energy>  (238) 
81.192069352592881

>  <compound_id>  (238) 
8175

>  <target_id>  (238) 
1

>  <reference_id>  (238) 
96

>  <inspiration_ids>  (238) 
[35, 96]

>  <energy_score>  (238) 
19.512216076046542

>  <distance_score>  (238) 
2.0422513540989073

>  <path>  (238) 
/opt/xchem-fragalysis-2/maxwin/BulkDock/SCRATCH/511017/C8175-P96/C8175-P96.minimised.mol

>  <scratch_subdir>  (238) 
/opt/xchem-fragalysis-2/maxwin/BulkDock/SCRATCH/511017/C8175-P96

>  <fragmenstein_runtime>  (238) 
7.190538167953491

>  <fragmenstein_outcome>  (238) 
too moved

>  <fragmenstein_mode>  (238) 
expansion

>  <fragmenstein_error>  (238) 


$$$$
C8176-P35
     RDKit          3D

 46 48  0  0  0  0  0  0  0  0999 V2000
  -15.5292  -29.4405   28.2822 C   0  0  0  0  0  0  0  0  0  0  0  0
  -14.9081  -28.0467   28.2870 C   0  0  0  0  0  0  0  0  0  0  0  0
  -14.7949  -27.5119   26.8507 C   0  0  0  0  0  0  0  0  0  0  0  0
  -13.9807  -26.3213   26.7311 N   0  0  0  0  0  0  0  0  0  0  0  0
  -12.7078  -26.0534   25.8887 C   0  0  0  0  0  0  0  0  0  0  0  0
  -12.0763  -26.7742   25.2218 O   0  0  0  0  0  0  0  0  0  0  0  0
  -12.3107  -24.6065   26.0879 C   0  0  0  0  0  0  0  0  0  0  0  0
  -11.1663  -24.5468   27.0759 C   0  0  0  0  0  0  0  0  0  0  0  0
  -11.5278  -23.7991   28.2955 C   0  0  0  0  0  0  0  0  0  0  0  0
  -11.9632  -24.2192   29.5280 C   0  0  0  0  0  0  0  0  0  0  0  0
  -12.1377  -23.0365   30.2648 C   0  0  0  0  0  0  0  0  0  0  0  0
  -11.8420  -21.9478   29.5551 N   0  0  0  0  0  0  0  0  0  0  0  0
  -11.4782  -22.4330   28.3596 N   0  0  0  0  0  0  0  0  0  0  0  0
  -13.6315  -28.0247   28.9718 N   0  0  0  0  0  0  0  0  0  0  0  0
  -13.2066  -28.6439   30.3174 C   0  0  0  0  0  0  0  0  0  0  0  0
  -13.7937  -29.3333   31.0496 O   0  0  0  0  0  0  0  0  0  0  0  0
  -11.8687  -28.1459   30.6802 C   0  0  0  0  0  0  0  0  0  0  0  0
  -10.7714  -28.0121   29.8509 C   0  0  0  0  0  0  0  0  0  0  0  0
   -9.8354  -27.3711   30.6026 N   0  0  0  0  0  0  0  0  0  0  0  0
  -10.4197  -27.0213   31.7852 C   0  0  0  0  0  0  0  0  0  0  0  0
   -9.8087  -25.9644   32.7298 C   0  0  0  0  0  0  0  0  0  0  0  0
  -10.4631  -24.6300   33.0077 C   0  0  0  0  0  0  0  0  0  0  0  0
   -9.3970  -24.7277   31.9864 C   0  0  0  0  0  0  0  0  0  0  0  0
  -11.5817  -27.6062   31.9284 N   0  0  0  0  0  0  0  0  0  0  0  0
  -16.4813  -29.4415   27.7411 H   0  0  0  0  0  0  0  0  0  0  0  0
  -14.8632  -30.1692   27.8069 H   0  0  0  0  0  0  0  0  0  0  0  0
  -15.7285  -29.7892   29.3005 H   0  0  0  0  0  0  0  0  0  0  0  0
  -15.5560  -27.3751   28.8629 H   0  0  0  0  0  0  0  0  0  0  0  0
  -15.7865  -27.2741   26.4515 H   0  0  0  0  0  0  0  0  0  0  0  0
  -14.3519  -28.2700   26.2058 H   0  0  0  0  0  0  0  0  0  0  0  0
  -14.3176  -25.4486   27.1232 H   0  0  0  0  0  0  0  0  0  0  0  0
  -11.9616  -24.2184   25.1272 H   0  0  0  0  0  0  0  0  0  0  0  0
  -13.1659  -23.9878   26.3587 H   0  0  0  0  0  0  0  0  0  0  0  0
  -10.8096  -25.5440   27.3610 H   0  0  0  0  0  0  0  0  0  0  0  0
  -10.3294  -24.0366   26.6007 H   0  0  0  0  0  0  0  0  0  0  0  0
  -12.1383  -25.2280   29.8707 H   0  0  0  0  0  0  0  0  0  0  0  0
  -12.4790  -22.9203   31.2863 H   0  0  0  0  0  0  0  0  0  0  0  0
  -11.2231  -21.7668   27.6346 H   0  0  0  0  0  0  0  0  0  0  0  0
  -12.9005  -27.4067   28.6378 H   0  0  0  0  0  0  0  0  0  0  0  0
  -10.5896  -28.2872   28.8226 H   0  0  0  0  0  0  0  0  0  0  0  0
   -8.9276  -27.0482   30.3085 H   0  0  0  0  0  0  0  0  0  0  0  0
   -9.1361  -26.3563   33.4842 H   0  0  0  0  0  0  0  0  0  0  0  0
  -11.4783  -24.4819   32.6729 H   0  0  0  0  0  0  0  0  0  0  0  0
  -10.2107  -24.0979   33.9160 H   0  0  0  0  0  0  0  0  0  0  0  0
   -8.4278  -24.3305   32.1937 H   0  0  0  0  0  0  0  0  0  0  0  0
   -9.6807  -24.6362   30.9484 H   0  0  0  0  0  0  0  0  0  0  0  0
  1  2  1  0
  2  3  1  0
  3  4  1  0
  4  5  1  0
  5  6  2  0
  5  7  1  0
  7  8  1  0
  8  9  1  0
  9 10  2  0
 10 11  1  0
 11 12  2  0
 12 13  1  0
  2 14  1  0
 14 15  1  0
 15 16  2  0
 15 17  1  0
 17 18  2  0
 18 19  1  0
 19 20  1  0
 20 21  1  0
 21 22  1  0
 22 23  1  0
 20 24  2  0
 13  9  1  0
 24 17  1  0
 23 21  1  0
  1 25  1  0
  1 26  1  0
  1 27  1  0
  2 28  1  0
  3 29  1  0
  3 30  1  0
  4 31  1  0
  7 32  1  0
  7 33  1  0
  8 34  1  0
  8 35  1  0
 10 36  1  0
 11 37  1  0
 13 38  1  0
 14 39  1  0
 18 40  1  0
 19 41  1  0
 21 42  1  0
 22 43  1  0
 22 44  1  0
 23 45  1  0
 23 46  1  0
M  END
>  <Energy>  (239) 
63.899662904436276

>  <compound_id>  (239) 
8176

>  <target_id>  (239) 
1

>  <reference_id>  (239) 
35

>  <inspiration_ids>  (239) 
[35, 96]

>  <energy_score>  (239) 
-7.0039992037904995

>  <distance_score>  (239) 
1.9272104772443726

>  <path>  (239) 
/opt/xchem-fragalysis-2/maxwin/BulkDock/SCRATCH/511017/C8176-P35/C8176-P35.minimised.mol

>  <scratch_subdir>  (239) 
/opt/xchem-fragalysis-2/maxwin/BulkDock/SCRATCH/511017/C8176-P35

>  <fragmenstein_runtime>  (239) 
9.057787895202637

>  <fragmenstein_outcome>  (239) 
too moved

>  <fragmenstein_mode>  (239) 
expansion

>  <fragmenstein_error>  (239) 


$$$$
C8176-P96
     RDKit          3D

 46 48  0  0  0  0  0  0  0  0999 V2000
  -14.9238  -29.7603   28.8588 C   0  0  0  0  0  0  0  0  0  0  0  0
  -15.2181  -28.2890   29.1207 C   0  0  0  0  0  0  0  0  0  0  0  0
  -15.4404  -27.5111   27.7872 C   0  0  0  0  0  0  0  0  0  0  0  0
  -14.2009  -26.8549   27.4274 N   0  0  0  0  0  0  0  0  0  0  0  0
  -13.6287  -26.4835   26.0444 C   0  0  0  0  0  0  0  0  0  0  0  0
  -14.0278  -26.7152   24.9760 O   0  0  0  0  0  0  0  0  0  0  0  0
  -12.3067  -25.8001   26.3553 C   0  0  0  0  0  0  0  0  0  0  0  0
  -12.4581  -24.3440   26.7048 C   0  0  0  0  0  0  0  0  0  0  0  0
  -11.3306  -23.8270   27.5135 C   0  0  0  0  0  0  0  0  0  0  0  0
  -10.2169  -24.4013   28.0818 C   0  0  0  0  0  0  0  0  0  0  0  0
   -9.6528  -23.3797   28.8538 C   0  0  0  0  0  0  0  0  0  0  0  0
  -10.3265  -22.2370   28.7581 N   0  0  0  0  0  0  0  0  0  0  0  0
  -11.2812  -22.5057   27.8628 N   0  0  0  0  0  0  0  0  0  0  0  0
  -14.1002  -27.6698   29.8306 N   0  0  0  0  0  0  0  0  0  0  0  0
  -14.0156  -26.3331   30.5934 C   0  0  0  0  0  0  0  0  0  0  0  0
  -14.8442  -25.5516   30.8419 O   0  0  0  0  0  0  0  0  0  0  0  0
  -12.5929  -26.0362   30.9458 C   0  0  0  0  0  0  0  0  0  0  0  0
  -11.4229  -26.6262   30.4871 C   0  0  0  0  0  0  0  0  0  0  0  0
  -10.3950  -25.8602   30.9864 N   0  0  0  0  0  0  0  0  0  0  0  0
  -10.9412  -24.8507   31.7133 C   0  0  0  0  0  0  0  0  0  0  0  0
  -10.1975  -23.7722   32.5456 C   0  0  0  0  0  0  0  0  0  0  0  0
   -8.7504  -23.4454   32.3529 C   0  0  0  0  0  0  0  0  0  0  0  0
   -9.1675  -24.2150   33.5595 C   0  0  0  0  0  0  0  0  0  0  0  0
  -12.2490  -24.9445   31.7182 N   0  0  0  0  0  0  0  0  0  0  0  0
  -15.7637  -30.2406   28.3467 H   0  0  0  0  0  0  0  0  0  0  0  0
  -14.0289  -29.8839   28.2384 H   0  0  0  0  0  0  0  0  0  0  0  0
  -14.7490  -30.2935   29.7995 H   0  0  0  0  0  0  0  0  0  0  0  0
  -16.1141  -28.1932   29.7434 H   0  0  0  0  0  0  0  0  0  0  0  0
  -16.1716  -26.7111   27.9437 H   0  0  0  0  0  0  0  0  0  0  0  0
  -15.7895  -28.1412   26.9643 H   0  0  0  0  0  0  0  0  0  0  0  0
  -13.6424  -26.4222   28.1514 H   0  0  0  0  0  0  0  0  0  0  0  0
  -11.8462  -26.3492   27.1850 H   0  0  0  0  0  0  0  0  0  0  0  0
  -11.6247  -25.9125   25.5169 H   0  0  0  0  0  0  0  0  0  0  0  0
  -13.3748  -24.2175   27.2899 H   0  0  0  0  0  0  0  0  0  0  0  0
  -12.5882  -23.7398   25.8005 H   0  0  0  0  0  0  0  0  0  0  0  0
   -9.8752  -25.4208   27.9926 H   0  0  0  0  0  0  0  0  0  0  0  0
   -8.7754  -23.4193   29.4805 H   0  0  0  0  0  0  0  0  0  0  0  0
  -11.8717  -21.7464   27.5282 H   0  0  0  0  0  0  0  0  0  0  0  0
  -13.1748  -28.0569   29.7263 H   0  0  0  0  0  0  0  0  0  0  0  0
  -11.2201  -27.4514   29.8234 H   0  0  0  0  0  0  0  0  0  0  0  0
   -9.4022  -25.9809   30.8411 H   0  0  0  0  0  0  0  0  0  0  0  0
  -10.8421  -22.9462   32.8371 H   0  0  0  0  0  0  0  0  0  0  0  0
   -8.1612  -23.9707   31.6168 H   0  0  0  0  0  0  0  0  0  0  0  0
   -8.4397  -22.4206   32.5140 H   0  0  0  0  0  0  0  0  0  0  0  0
   -9.1444  -23.6976   34.5121 H   0  0  0  0  0  0  0  0  0  0  0  0
   -8.8752  -25.2567   33.6088 H   0  0  0  0  0  0  0  0  0  0  0  0
  1  2  1  0
  2  3  1  0
  3  4  1  0
  4  5  1  0
  5  6  2  0
  5  7  1  0
  7  8  1  0
  8  9  1  0
  9 10  2  0
 10 11  1  0
 11 12  2  0
 12 13  1  0
  2 14  1  0
 14 15  1  0
 15 16  2  0
 15 17  1  0
 17 18  2  0
 18 19  1  0
 19 20  1  0
 20 21  1  0
 21 22  1  0
 22 23  1  0
 20 24  2  0
 13  9  1  0
 24 17  1  0
 23 21  1  0
  1 25  1  0
  1 26  1  0
  1 27  1  0
  2 28  1  0
  3 29  1  0
  3 30  1  0
  4 31  1  0
  7 32  1  0
  7 33  1  0
  8 34  1  0
  8 35  1  0
 10 36  1  0
 11 37  1  0
 13 38  1  0
 14 39  1  0
 18 40  1  0
 19 41  1  0
 21 42  1  0
 22 43  1  0
 22 44  1  0
 23 45  1  0
 23 46  1  0
M  END
>  <Energy>  (240) 
68.027415310119451

>  <compound_id>  (240) 
8176

>  <target_id>  (240) 
1

>  <reference_id>  (240) 
96

>  <inspiration_ids>  (240) 
[35, 96]

>  <energy_score>  (240) 
-2.876246798106422

>  <distance_score>  (240) 
2.146454420694646

>  <path>  (240) 
/opt/xchem-fragalysis-2/maxwin/BulkDock/SCRATCH/511017/C8176-P96/C8176-P96.minimised.mol

>  <scratch_subdir>  (240) 
/opt/xchem-fragalysis-2/maxwin/BulkDock/SCRATCH/511017/C8176-P96

>  <fragmenstein_runtime>  (240) 
7.754573345184326

>  <fragmenstein_outcome>  (240) 
too moved

>  <fragmenstein_mode>  (240) 
expansion

>  <fragmenstein_error>  (240) 


$$$$
C8177-P35
     RDKit          3D

 45 46  0  0  0  0  0  0  0  0999 V2000
  -11.3937  -24.6189   26.4685 C   0  0  0  0  0  0  0  0  0  0  0  0
  -12.0386  -25.1521   27.6768 C   0  0  0  0  0  0  0  0  0  0  0  0
  -13.3950  -25.3004   27.7283 N   0  0  0  0  0  0  0  0  0  0  0  0
  -13.7515  -25.5174   29.0213 C   0  0  0  0  0  0  0  0  0  0  0  0
  -12.7037  -25.6479   29.7823 N   0  0  0  0  0  0  0  0  0  0  0  0
  -11.6129  -25.5047   28.9445 C   0  0  0  0  0  0  0  0  0  0  0  0
  -10.2800  -25.4475   29.5255 C   0  0  0  0  0  0  0  0  0  0  0  0
   -9.3044  -25.6455   28.9410 O   0  0  0  0  0  0  0  0  0  0  0  0
  -10.4940  -24.9927   30.9490 N   0  0  0  0  0  0  0  0  0  0  0  0
   -9.5551  -24.5882   31.9460 C   0  0  0  0  0  0  0  0  0  0  0  0
  -10.1429  -23.3272   32.6478 C   0  0  0  0  0  0  0  0  0  0  0  0
  -11.2247  -23.9828   33.4224 C   0  0  0  0  0  0  0  0  0  0  0  0
  -10.8891  -22.2794   31.7469 C   0  0  0  0  0  0  0  0  0  0  0  0
   -9.1981  -22.6653   33.6849 C   0  0  0  0  0  0  0  0  0  0  0  0
   -9.6943  -21.4387   34.2085 N   0  0  0  0  0  0  0  0  0  0  0  0
   -9.7070  -20.8928   35.6715 C   0  0  0  0  0  0  0  0  0  0  0  0
   -9.2429  -21.3354   36.6488 O   0  0  0  0  0  0  0  0  0  0  0  0
  -10.5780  -19.6502   35.6008 C   0  0  0  0  0  0  0  0  0  0  0  0
  -11.8724  -20.1910   35.0579 C   0  0  0  0  0  0  0  0  0  0  0  0
  -12.9424  -19.6325   34.4165 C   0  0  0  0  0  0  0  0  0  0  0  0
  -13.6780  -20.7305   33.9081 C   0  0  0  0  0  0  0  0  0  0  0  0
  -13.0804  -21.8760   34.1831 N   0  0  0  0  0  0  0  0  0  0  0  0
  -12.1974  -21.5301   35.1150 N   0  0  0  0  0  0  0  0  0  0  0  0
  -11.9640  -23.7730   26.0684 H   0  0  0  0  0  0  0  0  0  0  0  0
  -11.3601  -25.3856   25.6915 H   0  0  0  0  0  0  0  0  0  0  0  0
  -10.3964  -24.2470   26.6904 H   0  0  0  0  0  0  0  0  0  0  0  0
  -14.0361  -25.1507   26.9624 H   0  0  0  0  0  0  0  0  0  0  0  0
  -14.7810  -25.5797   29.3494 H   0  0  0  0  0  0  0  0  0  0  0  0
  -11.4960  -25.0010   31.1624 H   0  0  0  0  0  0  0  0  0  0  0  0
   -8.6061  -24.4409   31.4829 H   0  0  0  0  0  0  0  0  0  0  0  0
   -9.3794  -25.4368   32.6194 H   0  0  0  0  0  0  0  0  0  0  0  0
  -12.1899  -23.9041   32.9118 H   0  0  0  0  0  0  0  0  0  0  0  0
  -11.0166  -25.0426   33.5678 H   0  0  0  0  0  0  0  0  0  0  0  0
  -11.2451  -23.5640   34.4144 H   0  0  0  0  0  0  0  0  0  0  0  0
  -11.7711  -21.8632   32.2251 H   0  0  0  0  0  0  0  0  0  0  0  0
  -11.2628  -22.6964   30.8072 H   0  0  0  0  0  0  0  0  0  0  0  0
  -10.2919  -21.3976   31.5212 H   0  0  0  0  0  0  0  0  0  0  0  0
   -8.2204  -22.4209   33.3002 H   0  0  0  0  0  0  0  0  0  0  0  0
   -9.0961  -23.3199   34.5563 H   0  0  0  0  0  0  0  0  0  0  0  0
  -10.2658  -20.8421   33.6181 H   0  0  0  0  0  0  0  0  0  0  0  0
  -10.7136  -19.2260   36.5989 H   0  0  0  0  0  0  0  0  0  0  0  0
  -10.1289  -18.9060   34.9372 H   0  0  0  0  0  0  0  0  0  0  0  0
  -13.1263  -18.5720   34.3039 H   0  0  0  0  0  0  0  0  0  0  0  0
  -14.5944  -20.7487   33.3334 H   0  0  0  0  0  0  0  0  0  0  0  0
  -11.7567  -22.2599   35.6666 H   0  0  0  0  0  0  0  0  0  0  0  0
  1  2  1  0
  2  3  1  0
  3  4  1  0
  4  5  2  0
  5  6  1  0
  6  7  1  0
  7  8  2  0
  7  9  1  0
  9 10  1  0
 10 11  1  0
 11 12  1  0
 11 13  1  0
 11 14  1  0
 14 15  1  0
 15 16  1  0
 16 17  2  0
 16 18  1  0
 18 19  1  0
 19 20  2  0
 20 21  1  0
 21 22  2  0
 22 23  1  0
  6  2  2  0
 23 19  1  0
  1 24  1  0
  1 25  1  0
  1 26  1  0
  3 27  1  0
  4 28  1  0
  9 29  1  0
 10 30  1  0
 10 31  1  0
 12 32  1  0
 12 33  1  0
 12 34  1  0
 13 35  1  0
 13 36  1  0
 13 37  1  0
 14 38  1  0
 14 39  1  0
 15 40  1  0
 18 41  1  0
 18 42  1  0
 20 43  1  0
 21 44  1  0
 23 45  1  0
M  END
>  <Energy>  (241) 
113.65016737434981

>  <compound_id>  (241) 
8177

>  <target_id>  (241) 
1

>  <reference_id>  (241) 
35

>  <inspiration_ids>  (241) 
[35, 96]

>  <energy_score>  (241) 
14.550354538882402

>  <distance_score>  (241) 
3.551914847036222

>  <path>  (241) 
/opt/xchem-fragalysis-2/maxwin/BulkDock/SCRATCH/511017/C8177-P35/C8177-P35.minimised.mol

>  <scratch_subdir>  (241) 
/opt/xchem-fragalysis-2/maxwin/BulkDock/SCRATCH/511017/C8177-P35

>  <fragmenstein_runtime>  (241) 
8.979918241500854

>  <fragmenstein_outcome>  (241) 
too moved

>  <fragmenstein_mode>  (241) 
expansion

>  <fragmenstein_error>  (241) 


$$$$
C8177-P96
     RDKit          3D

 45 46  0  0  0  0  0  0  0  0999 V2000
  -12.0446  -25.5470   26.6397 C   0  0  0  0  0  0  0  0  0  0  0  0
  -11.9751  -26.2969   27.9218 C   0  0  0  0  0  0  0  0  0  0  0  0
  -13.0054  -27.0192   28.4428 N   0  0  0  0  0  0  0  0  0  0  0  0
  -12.6932  -27.3140   29.7390 C   0  0  0  0  0  0  0  0  0  0  0  0
  -11.5092  -26.8720   30.0696 N   0  0  0  0  0  0  0  0  0  0  0  0
  -11.0180  -26.3043   28.9256 C   0  0  0  0  0  0  0  0  0  0  0  0
  -10.0257  -25.2702   28.9160 C   0  0  0  0  0  0  0  0  0  0  0  0
   -9.1687  -25.1933   28.1450 O   0  0  0  0  0  0  0  0  0  0  0  0
  -10.4336  -24.3313   30.0239 N   0  0  0  0  0  0  0  0  0  0  0  0
   -9.9476  -23.0607   30.3687 C   0  0  0  0  0  0  0  0  0  0  0  0
  -10.8446  -22.0876   29.5170 C   0  0  0  0  0  0  0  0  0  0  0  0
  -12.2758  -22.6094   29.3091 C   0  0  0  0  0  0  0  0  0  0  0  0
  -10.2520  -22.0548   28.1234 C   0  0  0  0  0  0  0  0  0  0  0  0
  -11.0278  -20.6368   30.0259 C   0  0  0  0  0  0  0  0  0  0  0  0
  -11.5352  -20.7011   31.3501 N   0  0  0  0  0  0  0  0  0  0  0  0
  -10.8179  -20.9591   32.6791 C   0  0  0  0  0  0  0  0  0  0  0  0
   -9.6895  -21.0835   32.9117 O   0  0  0  0  0  0  0  0  0  0  0  0
  -11.9212  -21.1432   33.7217 C   0  0  0  0  0  0  0  0  0  0  0  0
  -12.5884  -22.3889   33.2368 C   0  0  0  0  0  0  0  0  0  0  0  0
  -13.8611  -22.6580   32.7939 C   0  0  0  0  0  0  0  0  0  0  0  0
  -13.7533  -23.8995   32.1365 C   0  0  0  0  0  0  0  0  0  0  0  0
  -12.5120  -24.3799   32.1558 N   0  0  0  0  0  0  0  0  0  0  0  0
  -11.8448  -23.4981   32.9252 N   0  0  0  0  0  0  0  0  0  0  0  0
  -12.4847  -24.5582   26.7999 H   0  0  0  0  0  0  0  0  0  0  0  0
  -12.6749  -26.0744   25.9166 H   0  0  0  0  0  0  0  0  0  0  0  0
  -11.0536  -25.4083   26.1989 H   0  0  0  0  0  0  0  0  0  0  0  0
  -13.8887  -27.2173   27.9935 H   0  0  0  0  0  0  0  0  0  0  0  0
  -13.3746  -27.8431   30.3922 H   0  0  0  0  0  0  0  0  0  0  0  0
  -11.2954  -24.6751   30.4629 H   0  0  0  0  0  0  0  0  0  0  0  0
  -10.0027  -22.9432   31.4362 H   0  0  0  0  0  0  0  0  0  0  0  0
   -8.8963  -23.0622   30.0754 H   0  0  0  0  0  0  0  0  0  0  0  0
  -12.6722  -22.0247   28.5006 H   0  0  0  0  0  0  0  0  0  0  0  0
  -12.3804  -23.6386   28.9707 H   0  0  0  0  0  0  0  0  0  0  0  0
  -12.9195  -22.4630   30.1690 H   0  0  0  0  0  0  0  0  0  0  0  0
   -9.1677  -21.9729   28.2028 H   0  0  0  0  0  0  0  0  0  0  0  0
  -10.6719  -21.2116   27.5713 H   0  0  0  0  0  0  0  0  0  0  0  0
  -10.4670  -22.9530   27.5365 H   0  0  0  0  0  0  0  0  0  0  0  0
  -11.7568  -20.0922   29.4226 H   0  0  0  0  0  0  0  0  0  0  0  0
  -10.1314  -20.0322   30.0304 H   0  0  0  0  0  0  0  0  0  0  0  0
  -12.5237  -20.5643   31.5207 H   0  0  0  0  0  0  0  0  0  0  0  0
  -11.4828  -21.2777   34.7103 H   0  0  0  0  0  0  0  0  0  0  0  0
  -12.5896  -20.2779   33.7351 H   0  0  0  0  0  0  0  0  0  0  0  0
  -14.7311  -22.0175   32.8463 H   0  0  0  0  0  0  0  0  0  0  0  0
  -14.5234  -24.4510   31.6161 H   0  0  0  0  0  0  0  0  0  0  0  0
  -10.8646  -23.6732   33.1370 H   0  0  0  0  0  0  0  0  0  0  0  0
  1  2  1  0
  2  3  1  0
  3  4  1  0
  4  5  2  0
  5  6  1  0
  6  7  1  0
  7  8  2  0
  7  9  1  0
  9 10  1  0
 10 11  1  0
 11 12  1  0
 11 13  1  0
 11 14  1  0
 14 15  1  0
 15 16  1  0
 16 17  2  0
 16 18  1  0
 18 19  1  0
 19 20  2  0
 20 21  1  0
 21 22  2  0
 22 23  1  0
  6  2  2  0
 23 19  1  0
  1 24  1  0
  1 25  1  0
  1 26  1  0
  3 27  1  0
  4 28  1  0
  9 29  1  0
 10 30  1  0
 10 31  1  0
 12 32  1  0
 12 33  1  0
 12 34  1  0
 13 35  1  0
 13 36  1  0
 13 37  1  0
 14 38  1  0
 14 39  1  0
 15 40  1  0
 18 41  1  0
 18 42  1  0
 20 43  1  0
 21 44  1  0
 23 45  1  0
M  END
>  <Energy>  (242) 
103.30140555730246

>  <compound_id>  (242) 
8177

>  <target_id>  (242) 
1

>  <reference_id>  (242) 
96

>  <inspiration_ids>  (242) 
[35, 96]

>  <energy_score>  (242) 
4.2015927218376135

>  <distance_score>  (242) 
3.1787399343888185

>  <path>  (242) 
/opt/xchem-fragalysis-2/maxwin/BulkDock/SCRATCH/511017/C8177-P96/C8177-P96.minimised.mol

>  <scratch_subdir>  (242) 
/opt/xchem-fragalysis-2/maxwin/BulkDock/SCRATCH/511017/C8177-P96

>  <fragmenstein_runtime>  (242) 
10.056914329528809

>  <fragmenstein_outcome>  (242) 
too moved

>  <fragmenstein_mode>  (242) 
expansion

>  <fragmenstein_error>  (242) 


$$$$
C20891-P106
     RDKit          3D

 39 42  0  0  0  0  0  0  0  0999 V2000
    1.4630   -0.1057    9.7376 O   0  0  0  0  0  0  0  0  0  0  0  0
    0.9436   -1.1430    9.9000 C   0  0  0  0  0  0  0  0  0  0  0  0
    2.2446   -2.3865   10.7649 N   0  0  0  0  0  0  0  0  0  0  0  0
    3.7561   -2.1949   11.3754 C   0  0  0  0  0  0  0  0  0  0  0  0
    4.9784   -0.6707   11.2890 C   0  0  0  0  0  0  0  0  0  0  0  0
    6.4838   -0.9711   11.4010 N   0  0  0  0  0  0  0  0  0  0  0  0
    6.7455   -1.6189   12.5711 C   0  0  0  0  0  0  0  0  0  0  0  0
    7.5259   -1.2123   13.5505 N   0  0  0  0  0  0  0  0  0  0  0  0
    7.3680   -2.0480   14.5853 C   0  0  0  0  0  0  0  0  0  0  0  0
    6.1918   -2.6924   14.3861 C   0  0  0  0  0  0  0  0  0  0  0  0
    5.8484   -2.6375   13.0083 N   0  0  0  0  0  0  0  0  0  0  0  0
    4.3848   -3.1267   12.2311 C   0  0  0  0  0  0  0  0  0  0  0  0
   -1.1928   -0.9557    9.3073 C   0  0  0  0  0  0  0  0  0  0  0  0
   -2.5098    0.0462    8.9537 C   0  0  0  0  0  0  0  0  0  0  0  0
   -3.9903   -0.1919    8.4069 C   0  0  0  0  0  0  0  0  0  0  0  0
   -5.1209    0.5899    8.0085 N   0  0  0  0  0  0  0  0  0  0  0  0
   -5.5549    2.0096    7.8240 C   0  0  0  0  0  0  0  0  0  0  0  0
   -6.2003    2.0503    6.4490 C   0  0  0  0  0  0  0  0  0  0  0  0
   -7.1168    0.8601    6.5668 C   0  0  0  0  0  0  0  0  0  0  0  0
   -6.2581   -0.1593    7.3103 C   0  0  0  0  0  0  0  0  0  0  0  0
   -4.1468   -1.4932    8.1469 C   0  0  0  0  0  0  0  0  0  0  0  0
   -3.0130   -2.2080    8.1062 C   0  0  0  0  0  0  0  0  0  0  0  0
   -1.6972   -1.8250    8.3520 N   0  0  0  0  0  0  0  0  0  0  0  0
    1.8162   -3.1619   10.9579 H   0  0  0  0  0  0  0  0  0  0  0  0
    5.3121   -0.3500   12.2472 H   0  0  0  0  0  0  0  0  0  0  0  0
    7.9777   -1.9393   15.4629 H   0  0  0  0  0  0  0  0  0  0  0  0
    5.5190   -3.1758   15.0536 H   0  0  0  0  0  0  0  0  0  0  0  0
    3.7792   -3.9686   12.5381 H   0  0  0  0  0  0  0  0  0  0  0  0
   -2.3604    1.1140    8.9228 H   0  0  0  0  0  0  0  0  0  0  0  0
   -4.8121    2.8025    7.9605 H   0  0  0  0  0  0  0  0  0  0  0  0
   -6.3853    2.2248    8.5109 H   0  0  0  0  0  0  0  0  0  0  0  0
   -6.7478    2.9797    6.2695 H   0  0  0  0  0  0  0  0  0  0  0  0
   -5.4693    1.9080    5.6464 H   0  0  0  0  0  0  0  0  0  0  0  0
   -8.0052    1.1093    7.1601 H   0  0  0  0  0  0  0  0  0  0  0  0
   -7.4601    0.4917    5.5953 H   0  0  0  0  0  0  0  0  0  0  0  0
   -6.8620   -0.7119    8.0397 H   0  0  0  0  0  0  0  0  0  0  0  0
   -5.8947   -0.8297    6.5309 H   0  0  0  0  0  0  0  0  0  0  0  0
   -5.0434   -2.0019    7.8402 H   0  0  0  0  0  0  0  0  0  0  0  0
   -3.1282   -3.2437    7.7788 H   0  0  0  0  0  0  0  0  0  0  0  0
  1  2  2  0
  2  3  1  0
  3  4  1  0
  4  5  1  0
  5  6  2  0
  6  7  1  0
  7  8  2  0
  8  9  1  0
  9 10  2  0
 10 11  1  0
 11 12  1  0
  2 13  1  0
 13 14  2  0
 14 15  1  0
 15 16  1  0
 16 17  1  0
 17 18  1  0
 18 19  1  0
 19 20  1  0
 15 21  2  0
 21 22  1  0
 22 23  2  0
 12  4  2  0
 23 13  1  0
 11  7  1  0
 20 16  1  0
  3 24  1  0
  5 25  1  0
  9 26  1  0
 10 27  1  0
 12 28  1  0
 14 29  1  0
 17 30  1  0
 17 31  1  0
 18 32  1  0
 18 33  1  0
 19 34  1  0
 19 35  1  0
 20 36  1  0
 20 37  1  0
 21 38  1  0
 22 39  1  0
M  END
>  <Energy>  (243) 
811.72149300604144

>  <compound_id>  (243) 
20891

>  <target_id>  (243) 
1

>  <reference_id>  (243) 
106

>  <inspiration_ids>  (243) 
[106, 99]

>  <energy_score>  (243) 
712.4048514065742

>  <distance_score>  (243) 
7.428008371738245

>  <path>  (243) 
/opt/xchem-fragalysis-2/maxwin/BulkDock/SCRATCH/511017/C20891-P106/C20891-P106.minimised.mol

>  <scratch_subdir>  (243) 
/opt/xchem-fragalysis-2/maxwin/BulkDock/SCRATCH/511017/C20891-P106

>  <fragmenstein_runtime>  (243) 
9.372806072235107

>  <fragmenstein_outcome>  (243) 
too moved

>  <fragmenstein_mode>  (243) 
expansion

>  <fragmenstein_error>  (243) 


$$$$
C20891-P99
     RDKit          3D

 39 42  0  0  0  0  0  0  0  0999 V2000
    1.9823   -2.1308   11.3713 O   0  0  0  0  0  0  0  0  0  0  0  0
    1.9213   -1.1640   10.8160 C   0  0  0  0  0  0  0  0  0  0  0  0
    3.6660   -0.1325   11.0465 N   0  0  0  0  0  0  0  0  0  0  0  0
    5.3355   -0.5971   11.8702 C   0  0  0  0  0  0  0  0  0  0  0  0
    6.0772   -0.5370   13.0092 C   0  0  0  0  0  0  0  0  0  0  0  0
    5.9633   -1.2417   14.1248 N   0  0  0  0  0  0  0  0  0  0  0  0
    7.1360   -1.3079   14.6220 C   0  0  0  0  0  0  0  0  0  0  0  0
    7.7583   -0.7478   15.6133 N   0  0  0  0  0  0  0  0  0  0  0  0
    9.0204   -1.0669   15.3576 C   0  0  0  0  0  0  0  0  0  0  0  0
    9.0421   -1.8893   14.2593 C   0  0  0  0  0  0  0  0  0  0  0  0
    7.7782   -1.6374   13.5046 N   0  0  0  0  0  0  0  0  0  0  0  0
    6.7653   -1.3716   11.9712 C   0  0  0  0  0  0  0  0  0  0  0  0
    0.0725   -1.0950    9.6705 C   0  0  0  0  0  0  0  0  0  0  0  0
   -1.8242   -1.2094    9.1764 C   0  0  0  0  0  0  0  0  0  0  0  0
   -3.3258   -1.5700    8.2639 C   0  0  0  0  0  0  0  0  0  0  0  0
   -4.6406   -1.0159    8.4751 N   0  0  0  0  0  0  0  0  0  0  0  0
   -4.8072    0.3746    8.0256 C   0  0  0  0  0  0  0  0  0  0  0  0
   -5.6622    0.4037    6.7538 C   0  0  0  0  0  0  0  0  0  0  0  0
   -5.9511   -1.0316    6.4194 C   0  0  0  0  0  0  0  0  0  0  0  0
   -5.7523   -1.7317    7.7489 C   0  0  0  0  0  0  0  0  0  0  0  0
   -3.1455   -2.0941    7.0783 C   0  0  0  0  0  0  0  0  0  0  0  0
   -1.9699   -1.5446    7.1030 C   0  0  0  0  0  0  0  0  0  0  0  0
   -0.9629   -1.7088    8.5138 N   0  0  0  0  0  0  0  0  0  0  0  0
    3.5613    0.7840   10.6057 H   0  0  0  0  0  0  0  0  0  0  0  0
    7.1081    0.1628   12.7737 H   0  0  0  0  0  0  0  0  0  0  0  0
    9.8547   -0.7636   15.9727 H   0  0  0  0  0  0  0  0  0  0  0  0
    9.9714   -2.2737   13.8566 H   0  0  0  0  0  0  0  0  0  0  0  0
    7.2600   -1.7528   11.1117 H   0  0  0  0  0  0  0  0  0  0  0  0
   -2.5456   -0.2791    9.4291 H   0  0  0  0  0  0  0  0  0  0  0  0
   -5.4543    0.8401    8.7591 H   0  0  0  0  0  0  0  0  0  0  0  0
   -3.8780    0.9409    7.9617 H   0  0  0  0  0  0  0  0  0  0  0  0
   -6.5960    0.9461    6.9494 H   0  0  0  0  0  0  0  0  0  0  0  0
   -5.1942    0.9067    5.9095 H   0  0  0  0  0  0  0  0  0  0  0  0
   -5.2513   -1.3959    5.6604 H   0  0  0  0  0  0  0  0  0  0  0  0
   -6.9614   -1.1763    6.0247 H   0  0  0  0  0  0  0  0  0  0  0  0
   -5.5873   -2.7984    7.5765 H   0  0  0  0  0  0  0  0  0  0  0  0
   -6.6660   -1.6122    8.3439 H   0  0  0  0  0  0  0  0  0  0  0  0
   -3.3735   -3.1543    7.0290 H   0  0  0  0  0  0  0  0  0  0  0  0
   -1.9308   -0.4921    6.8482 H   0  0  0  0  0  0  0  0  0  0  0  0
  1  2  2  0
  2  3  1  0
  3  4  1  0
  4  5  1  0
  5  6  2  0
  6  7  1  0
  7  8  2  0
  8  9  1  0
  9 10  2  0
 10 11  1  0
 11 12  1  0
  2 13  1  0
 13 14  2  0
 14 15  1  0
 15 16  1  0
 16 17  1  0
 17 18  1  0
 18 19  1  0
 19 20  1  0
 15 21  2  0
 21 22  1  0
 22 23  2  0
 12  4  2  0
 23 13  1  0
 11  7  1  0
 20 16  1  0
  3 24  1  0
  5 25  1  0
  9 26  1  0
 10 27  1  0
 12 28  1  0
 14 29  1  0
 17 30  1  0
 17 31  1  0
 18 32  1  0
 18 33  1  0
 19 34  1  0
 19 35  1  0
 20 36  1  0
 20 37  1  0
 21 38  1  0
 22 39  1  0
M  END
>  <Energy>  (244) 
1609.3158221105014

>  <compound_id>  (244) 
20891

>  <target_id>  (244) 
1

>  <reference_id>  (244) 
99

>  <inspiration_ids>  (244) 
[106, 99]

>  <energy_score>  (244) 
1509.999180511044

>  <distance_score>  (244) 
6.673580837262382

>  <path>  (244) 
/opt/xchem-fragalysis-2/maxwin/BulkDock/SCRATCH/511017/C20891-P99/C20891-P99.minimised.mol

>  <scratch_subdir>  (244) 
/opt/xchem-fragalysis-2/maxwin/BulkDock/SCRATCH/511017/C20891-P99

>  <fragmenstein_runtime>  (244) 
11.341765642166138

>  <fragmenstein_outcome>  (244) 
too moved

>  <fragmenstein_mode>  (244) 
expansion

>  <fragmenstein_error>  (244) 


$$$$
C20892-P106
     RDKit          3D

 45 48  0  0  0  0  0  0  0  0999 V2000
   -6.4688   -1.1221    8.9291 O   0  0  0  0  0  0  0  0  0  0  0  0
   -5.7754   -0.6865    8.0918 C   0  0  0  0  0  0  0  0  0  0  0  0
   -6.0343   -0.4610    6.6807 N   0  0  0  0  0  0  0  0  0  0  0  0
   -7.1143   -0.7728    5.9126 C   0  0  0  0  0  0  0  0  0  0  0  0
   -7.2776   -0.2136    4.5353 C   0  0  0  0  0  0  0  0  0  0  0  0
   -8.0661   -0.6529    3.6042 N   0  0  0  0  0  0  0  0  0  0  0  0
   -8.8000   -1.7522    3.9295 C   0  0  0  0  0  0  0  0  0  0  0  0
   -9.5099   -2.5277    3.1381 N   0  0  0  0  0  0  0  0  0  0  0  0
  -10.0294   -3.4990    3.9486 C   0  0  0  0  0  0  0  0  0  0  0  0
   -9.6474   -3.3183    5.2558 C   0  0  0  0  0  0  0  0  0  0  0  0
   -8.8209   -2.2329    5.2358 N   0  0  0  0  0  0  0  0  0  0  0  0
   -7.9985   -1.7298    6.2317 C   0  0  0  0  0  0  0  0  0  0  0  0
   -4.3764   -0.2139    8.1656 N   0  0  0  0  0  0  0  0  0  0  0  0
   -3.4512   -1.2959    7.8919 C   0  0  0  0  0  0  0  0  0  0  0  0
   -1.7695   -1.6126    8.5781 C   0  0  0  0  0  0  0  0  0  0  0  0
   -0.2659   -1.0535    9.9716 C   0  0  0  0  0  0  0  0  0  0  0  0
    1.5465   -1.2772   10.5903 N   0  0  0  0  0  0  0  0  0  0  0  0
    2.8062   -0.0838   11.3788 C   0  0  0  0  0  0  0  0  0  0  0  0
    4.3623   -0.8675   11.4036 C   0  0  0  0  0  0  0  0  0  0  0  0
    3.7615   -2.6726   11.6447 C   0  0  0  0  0  0  0  0  0  0  0  0
    2.6257   -2.8346   10.6997 C   0  0  0  0  0  0  0  0  0  0  0  0
   -1.8900   -0.0877    9.0833 C   0  0  0  0  0  0  0  0  0  0  0  0
   -3.5253   -0.0594    9.2654 C   0  0  0  0  0  0  0  0  0  0  0  0
   -5.2399    0.0072    6.2701 H   0  0  0  0  0  0  0  0  0  0  0  0
   -6.6726    0.6811    4.3180 H   0  0  0  0  0  0  0  0  0  0  0  0
  -10.6473   -4.2910    3.5482 H   0  0  0  0  0  0  0  0  0  0  0  0
   -9.8461   -3.8859    6.1507 H   0  0  0  0  0  0  0  0  0  0  0  0
   -8.0119   -2.2529    7.1801 H   0  0  0  0  0  0  0  0  0  0  0  0
   -3.1995   -0.9591    6.8897 H   0  0  0  0  0  0  0  0  0  0  0  0
   -3.9595   -2.2577    7.7412 H   0  0  0  0  0  0  0  0  0  0  0  0
   -1.3627   -1.6272    7.5629 H   0  0  0  0  0  0  0  0  0  0  0  0
   -2.3141   -2.5005    8.8682 H   0  0  0  0  0  0  0  0  0  0  0  0
    0.4572   -1.8794    9.4474 H   0  0  0  0  0  0  0  0  0  0  0  0
    2.9640    0.7725   10.6824 H   0  0  0  0  0  0  0  0  0  0  0  0
    2.3875    0.2352   12.3565 H   0  0  0  0  0  0  0  0  0  0  0  0
    5.3195   -0.7404   11.9886 H   0  0  0  0  0  0  0  0  0  0  0  0
    4.7666   -0.3042   10.5911 H   0  0  0  0  0  0  0  0  0  0  0  0
    4.4914   -3.5052   11.6137 H   0  0  0  0  0  0  0  0  0  0  0  0
    3.4327   -3.0107   12.6510 H   0  0  0  0  0  0  0  0  0  0  0  0
    2.8947   -3.3191    9.7481 H   0  0  0  0  0  0  0  0  0  0  0  0
    2.3079   -3.7537   11.2229 H   0  0  0  0  0  0  0  0  0  0  0  0
   -1.9546    0.9897    9.0902 H   0  0  0  0  0  0  0  0  0  0  0  0
   -1.7699    0.1199    8.0034 H   0  0  0  0  0  0  0  0  0  0  0  0
   -4.0744   -0.4183   10.1229 H   0  0  0  0  0  0  0  0  0  0  0  0
   -3.7002    1.0076    9.3084 H   0  0  0  0  0  0  0  0  0  0  0  0
  1  2  2  0
  2  3  1  0
  3  4  1  0
  4  5  1  0
  5  6  2  0
  6  7  1  0
  7  8  2  0
  8  9  1  0
  9 10  2  0
 10 11  1  0
 11 12  1  0
  2 13  1  0
 13 14  1  0
 14 15  1  0
 15 16  1  0
 16 17  1  0
 17 18  1  0
 18 19  1  0
 19 20  1  0
 20 21  1  0
 16 22  1  0
 22 23  1  0
 12  4  2  0
 23 13  1  0
 11  7  1  0
 21 17  1  0
  3 24  1  0
  5 25  1  0
  9 26  1  0
 10 27  1  0
 12 28  1  0
 14 29  1  0
 14 30  1  0
 15 31  1  0
 15 32  1  0
 16 33  1  0
 18 34  1  0
 18 35  1  0
 19 36  1  0
 19 37  1  0
 20 38  1  0
 20 39  1  0
 21 40  1  0
 21 41  1  0
 22 42  1  0
 22 43  1  0
 23 44  1  0
 23 45  1  0
M  END
>  <Energy>  (245) 
867.04249303701442

>  <compound_id>  (245) 
20892

>  <target_id>  (245) 
1

>  <reference_id>  (245) 
106

>  <inspiration_ids>  (245) 
[106, 99]

>  <energy_score>  (245) 
831.912882944768

>  <distance_score>  (245) 
8.164342767855315

>  <path>  (245) 
/opt/xchem-fragalysis-2/maxwin/BulkDock/SCRATCH/511017/C20892-P106/C20892-P106.minimised.mol

>  <scratch_subdir>  (245) 
/opt/xchem-fragalysis-2/maxwin/BulkDock/SCRATCH/511017/C20892-P106

>  <fragmenstein_runtime>  (245) 
16.135777473449707

>  <fragmenstein_outcome>  (245) 
too moved

>  <fragmenstein_mode>  (245) 
expansion

>  <fragmenstein_error>  (245) 


$$$$
C20892-P99
     RDKit          3D

 45 48  0  0  0  0  0  0  0  0999 V2000
   -2.1009    0.2476    8.1921 O   0  0  0  0  0  0  0  0  0  0  0  0
   -1.8828   -0.8316    8.5640 C   0  0  0  0  0  0  0  0  0  0  0  0
   -2.7823   -1.9597    8.4790 N   0  0  0  0  0  0  0  0  0  0  0  0
   -4.0051   -2.0929    7.8986 C   0  0  0  0  0  0  0  0  0  0  0  0
   -4.3750   -3.2152    7.0071 C   0  0  0  0  0  0  0  0  0  0  0  0
   -5.4533   -3.3194    6.2879 N   0  0  0  0  0  0  0  0  0  0  0  0
   -6.3396   -2.2888    6.3662 C   0  0  0  0  0  0  0  0  0  0  0  0
   -7.5011   -2.1377    5.7657 N   0  0  0  0  0  0  0  0  0  0  0  0
   -7.9862   -0.9250    6.1816 C   0  0  0  0  0  0  0  0  0  0  0  0
   -7.0949   -0.3000    7.0212 C   0  0  0  0  0  0  0  0  0  0  0  0
   -6.0483   -1.1740    7.1406 N   0  0  0  0  0  0  0  0  0  0  0  0
   -4.8747   -1.0663    7.8631 C   0  0  0  0  0  0  0  0  0  0  0  0
   -0.1326   -1.3276    9.2504 N   0  0  0  0  0  0  0  0  0  0  0  0
   -0.0481   -1.0902   11.0109 C   0  0  0  0  0  0  0  0  0  0  0  0
    1.5339   -1.2813   11.6369 C   0  0  0  0  0  0  0  0  0  0  0  0
    3.4528   -1.7098   11.2575 C   0  0  0  0  0  0  0  0  0  0  0  0
    5.0815   -2.4740   12.1765 N   0  0  0  0  0  0  0  0  0  0  0  0
    6.3893   -1.2709   12.1071 C   0  0  0  0  0  0  0  0  0  0  0  0
    7.4232   -1.3615   13.2831 C   0  0  0  0  0  0  0  0  0  0  0  0
    7.0552   -2.1364   14.4548 C   0  0  0  0  0  0  0  0  0  0  0  0
    5.6553   -2.2164   14.0226 C   0  0  0  0  0  0  0  0  0  0  0  0
    2.6935    0.1600   10.9587 C   0  0  0  0  0  0  0  0  0  0  0  0
    1.4808   -0.3383    9.3000 C   0  0  0  0  0  0  0  0  0  0  0  0
   -2.3181   -2.7375    8.7848 H   0  0  0  0  0  0  0  0  0  0  0  0
   -3.6206   -4.0154    6.9670 H   0  0  0  0  0  0  0  0  0  0  0  0
   -8.9531   -0.5680    5.8502 H   0  0  0  0  0  0  0  0  0  0  0  0
   -7.1243    0.6476    7.5382 H   0  0  0  0  0  0  0  0  0  0  0  0
   -4.7109   -0.1372    8.3939 H   0  0  0  0  0  0  0  0  0  0  0  0
   -0.8423   -1.6619   11.3570 H   0  0  0  0  0  0  0  0  0  0  0  0
   -0.7183   -0.4343   11.5957 H   0  0  0  0  0  0  0  0  0  0  0  0
    1.4521   -2.1127   11.1070 H   0  0  0  0  0  0  0  0  0  0  0  0
    1.2982   -1.0271   12.6987 H   0  0  0  0  0  0  0  0  0  0  0  0
    3.3282   -2.4417   10.4678 H   0  0  0  0  0  0  0  0  0  0  0  0
    6.9366   -1.2489   11.1754 H   0  0  0  0  0  0  0  0  0  0  0  0
    5.8616   -0.3657   12.2550 H   0  0  0  0  0  0  0  0  0  0  0  0
    7.9351   -0.4264   13.5216 H   0  0  0  0  0  0  0  0  0  0  0  0
    8.1025   -2.1173   13.0535 H   0  0  0  0  0  0  0  0  0  0  0  0
    7.5548   -3.0937   14.6117 H   0  0  0  0  0  0  0  0  0  0  0  0
    7.2721   -1.4994   15.3167 H   0  0  0  0  0  0  0  0  0  0  0  0
    5.5914   -1.1592   14.1437 H   0  0  0  0  0  0  0  0  0  0  0  0
    4.9912   -2.6793   14.7459 H   0  0  0  0  0  0  0  0  0  0  0  0
    3.4763    0.8355   10.5522 H   0  0  0  0  0  0  0  0  0  0  0  0
    2.2786    0.6804   11.8466 H   0  0  0  0  0  0  0  0  0  0  0  0
    1.7288   -0.4718    8.2449 H   0  0  0  0  0  0  0  0  0  0  0  0
    1.4753    0.7609    9.0253 H   0  0  0  0  0  0  0  0  0  0  0  0
  1  2  2  0
  2  3  1  0
  3  4  1  0
  4  5  1  0
  5  6  2  0
  6  7  1  0
  7  8  2  0
  8  9  1  0
  9 10  2  0
 10 11  1  0
 11 12  1  0
  2 13  1  0
 13 14  1  0
 14 15  1  0
 15 16  1  0
 16 17  1  0
 17 18  1  0
 18 19  1  0
 19 20  1  0
 20 21  1  0
 16 22  1  0
 22 23  1  0
 12  4  2  0
 23 13  1  0
 11  7  1  0
 21 17  1  0
  3 24  1  0
  5 25  1  0
  9 26  1  0
 10 27  1  0
 12 28  1  0
 14 29  1  0
 14 30  1  0
 15 31  1  0
 15 32  1  0
 16 33  1  0
 18 34  1  0
 18 35  1  0
 19 36  1  0
 19 37  1  0
 20 38  1  0
 20 39  1  0
 21 40  1  0
 21 41  1  0
 22 42  1  0
 22 43  1  0
 23 44  1  0
 23 45  1  0
M  END
>  <Energy>  (246) 
845.77047799165075

>  <compound_id>  (246) 
20892

>  <target_id>  (246) 
1

>  <reference_id>  (246) 
99

>  <inspiration_ids>  (246) 
[106, 99]

>  <energy_score>  (246) 
810.6408678994192

>  <distance_score>  (246) 
6.7251199890483875

>  <path>  (246) 
/opt/xchem-fragalysis-2/maxwin/BulkDock/SCRATCH/511017/C20892-P99/C20892-P99.minimised.mol

>  <scratch_subdir>  (246) 
/opt/xchem-fragalysis-2/maxwin/BulkDock/SCRATCH/511017/C20892-P99

>  <fragmenstein_runtime>  (246) 
18.117485523223877

>  <fragmenstein_outcome>  (246) 
too moved

>  <fragmenstein_mode>  (246) 
expansion

>  <fragmenstein_error>  (246) 


$$$$
C20893-P106
     RDKit          3D

 39 42  0  0  0  0  0  0  0  0999 V2000
   -3.8108    0.3939    8.6893 O   0  0  0  0  0  0  0  0  0  0  0  0
   -3.5902   -0.6398    8.1251 C   0  0  0  0  0  0  0  0  0  0  0  0
   -4.4777   -1.5983    7.5666 N   0  0  0  0  0  0  0  0  0  0  0  0
   -5.8343   -1.5874    7.4249 C   0  0  0  0  0  0  0  0  0  0  0  0
   -6.5284   -2.7003    6.7006 C   0  0  0  0  0  0  0  0  0  0  0  0
   -7.7903   -2.7705    6.4184 N   0  0  0  0  0  0  0  0  0  0  0  0
   -8.5602   -1.7288    6.8499 C   0  0  0  0  0  0  0  0  0  0  0  0
   -9.8473   -1.5146    6.6720 N   0  0  0  0  0  0  0  0  0  0  0  0
  -10.1365   -0.3518    7.3353 C   0  0  0  0  0  0  0  0  0  0  0  0
   -9.0059    0.1879    7.8993 C   0  0  0  0  0  0  0  0  0  0  0  0
   -8.0000   -0.6821    7.5758 N   0  0  0  0  0  0  0  0  0  0  0  0
   -6.6446   -0.6078    7.8496 C   0  0  0  0  0  0  0  0  0  0  0  0
   -2.0914   -0.9412    8.0426 C   0  0  0  0  0  0  0  0  0  0  0  0
   -1.5208   -0.8885    9.2791 C   0  0  0  0  0  0  0  0  0  0  0  0
    0.1702   -1.1179   10.1796 C   0  0  0  0  0  0  0  0  0  0  0  0
    1.4010   -1.2893    9.4228 C   0  0  0  0  0  0  0  0  0  0  0  0
    2.0661    0.4703    9.6241 N   0  0  0  0  0  0  0  0  0  0  0  0
    3.2633    0.8502   10.8090 C   0  0  0  0  0  0  0  0  0  0  0  0
    3.8124    2.2285   10.4631 C   0  0  0  0  0  0  0  0  0  0  0  0
    3.9342    2.1356    8.9762 C   0  0  0  0  0  0  0  0  0  0  0  0
    2.5866    1.5345    8.5256 C   0  0  0  0  0  0  0  0  0  0  0  0
    0.8588   -1.9810    7.7950 N   0  0  0  0  0  0  0  0  0  0  0  0
   -0.9815   -1.4837    7.3635 C   0  0  0  0  0  0  0  0  0  0  0  0
   -3.9439   -2.3894    7.2438 H   0  0  0  0  0  0  0  0  0  0  0  0
   -5.8798   -3.5296    6.3766 H   0  0  0  0  0  0  0  0  0  0  0  0
  -11.1463    0.0351    7.3667 H   0  0  0  0  0  0  0  0  0  0  0  0
   -8.8395    1.0820    8.4818 H   0  0  0  0  0  0  0  0  0  0  0  0
   -6.3078    0.2679    8.3862 H   0  0  0  0  0  0  0  0  0  0  0  0
   -2.2645   -1.6981    9.4035 H   0  0  0  0  0  0  0  0  0  0  0  0
    0.2298   -0.8546   11.2185 H   0  0  0  0  0  0  0  0  0  0  0  0
    2.8613    0.9048   11.8190 H   0  0  0  0  0  0  0  0  0  0  0  0
    4.1522    0.2229   10.7922 H   0  0  0  0  0  0  0  0  0  0  0  0
    3.1193    3.0259   10.7476 H   0  0  0  0  0  0  0  0  0  0  0  0
    4.7711    2.4241   10.9527 H   0  0  0  0  0  0  0  0  0  0  0  0
    4.1027    3.1139    8.5145 H   0  0  0  0  0  0  0  0  0  0  0  0
    4.7718    1.4955    8.6872 H   0  0  0  0  0  0  0  0  0  0  0  0
    2.7229    1.1436    7.5369 H   0  0  0  0  0  0  0  0  0  0  0  0
    1.9121    2.3910    8.5010 H   0  0  0  0  0  0  0  0  0  0  0  0
   -1.0796   -1.7380    6.3967 H   0  0  0  0  0  0  0  0  0  0  0  0
  1  2  2  0
  2  3  1  0
  3  4  1  0
  4  5  1  0
  5  6  2  0
  6  7  1  0
  7  8  2  0
  8  9  1  0
  9 10  2  0
 10 11  1  0
 11 12  1  0
  2 13  1  0
 13 14  2  0
 14 15  1  0
 15 16  2  0
 16 17  1  0
 17 18  1  0
 18 19  1  0
 19 20  1  0
 20 21  1  0
 16 22  1  0
 22 23  2  0
 12  4  2  0
 23 13  1  0
 11  7  1  0
 21 17  1  0
  3 24  1  0
  5 25  1  0
  9 26  1  0
 10 27  1  0
 12 28  1  0
 14 29  1  0
 15 30  1  0
 18 31  1  0
 18 32  1  0
 19 33  1  0
 19 34  1  0
 20 35  1  0
 20 36  1  0
 21 37  1  0
 21 38  1  0
 23 39  1  0
M  END
>  <Energy>  (247) 
518.90622201611802

>  <compound_id>  (247) 
20893

>  <target_id>  (247) 
1

>  <reference_id>  (247) 
106

>  <inspiration_ids>  (247) 
[106, 99]

>  <energy_score>  (247) 
466.0468847513609

>  <distance_score>  (247) 
9.690003313119156

>  <path>  (247) 
/opt/xchem-fragalysis-2/maxwin/BulkDock/SCRATCH/511017/C20893-P106/C20893-P106.minimised.mol

>  <scratch_subdir>  (247) 
/opt/xchem-fragalysis-2/maxwin/BulkDock/SCRATCH/511017/C20893-P106

>  <fragmenstein_runtime>  (247) 
13.628297805786133

>  <fragmenstein_outcome>  (247) 
too moved

>  <fragmenstein_mode>  (247) 
expansion

>  <fragmenstein_error>  (247) 


$$$$
C20893-P99
     RDKit          3D

 39 42  0  0  0  0  0  0  0  0999 V2000
    0.4688   -8.1002    6.5372 O   0  0  0  0  0  0  0  0  0  0  0  0
    0.1648   -9.2520    6.6541 C   0  0  0  0  0  0  0  0  0  0  0  0
   -0.7176  -10.0664    5.8828 N   0  0  0  0  0  0  0  0  0  0  0  0
   -1.5427   -9.7542    4.8411 C   0  0  0  0  0  0  0  0  0  0  0  0
   -1.5198   -8.3692    4.2273 C   0  0  0  0  0  0  0  0  0  0  0  0
   -2.2729   -7.9231    3.2675 N   0  0  0  0  0  0  0  0  0  0  0  0
   -3.1927   -8.8037    2.7839 C   0  0  0  0  0  0  0  0  0  0  0  0
   -4.0826   -8.6330    1.8268 N   0  0  0  0  0  0  0  0  0  0  0  0
   -4.7400   -9.8275    1.6998 C   0  0  0  0  0  0  0  0  0  0  0  0
   -4.2508  -10.7575    2.5849 C   0  0  0  0  0  0  0  0  0  0  0  0
   -3.2614  -10.1094    3.2762 N   0  0  0  0  0  0  0  0  0  0  0  0
   -2.4374  -10.5843    4.2910 C   0  0  0  0  0  0  0  0  0  0  0  0
    0.9107   -9.9609    7.7201 C   0  0  0  0  0  0  0  0  0  0  0  0
    0.5712   -9.8774    9.0673 C   0  0  0  0  0  0  0  0  0  0  0  0
    1.6008  -10.0285   10.0337 C   0  0  0  0  0  0  0  0  0  0  0  0
    2.9502  -10.1940    9.6429 C   0  0  0  0  0  0  0  0  0  0  0  0
    4.0334   -9.9944   10.5107 N   0  0  0  0  0  0  0  0  0  0  0  0
    3.9354   -9.0828   11.6546 C   0  0  0  0  0  0  0  0  0  0  0  0
    5.3216   -8.4392   11.8274 C   0  0  0  0  0  0  0  0  0  0  0  0
    6.2488   -9.3920   11.1012 C   0  0  0  0  0  0  0  0  0  0  0  0
    5.3814   -9.8734    9.9317 C   0  0  0  0  0  0  0  0  0  0  0  0
    3.2080  -10.4410    8.3366 N   0  0  0  0  0  0  0  0  0  0  0  0
    2.2159  -10.2958    7.4144 C   0  0  0  0  0  0  0  0  0  0  0  0
   -0.6686  -11.0214    6.2239 H   0  0  0  0  0  0  0  0  0  0  0  0
   -0.7676   -7.6774    4.6280 H   0  0  0  0  0  0  0  0  0  0  0  0
   -5.5328   -9.9532    0.9740 H   0  0  0  0  0  0  0  0  0  0  0  0
   -4.5151  -11.7869    2.7753 H   0  0  0  0  0  0  0  0  0  0  0  0
   -2.5900  -11.6063    4.6088 H   0  0  0  0  0  0  0  0  0  0  0  0
   -0.4178   -9.5538    9.3804 H   0  0  0  0  0  0  0  0  0  0  0  0
    1.3582   -9.8733   11.0809 H   0  0  0  0  0  0  0  0  0  0  0  0
    3.6595   -9.6542   12.5472 H   0  0  0  0  0  0  0  0  0  0  0  0
    3.1894   -8.3090   11.4715 H   0  0  0  0  0  0  0  0  0  0  0  0
    5.5872   -8.3028   12.8795 H   0  0  0  0  0  0  0  0  0  0  0  0
    5.3437   -7.4559   11.3455 H   0  0  0  0  0  0  0  0  0  0  0  0
    7.1758   -8.9174   10.7682 H   0  0  0  0  0  0  0  0  0  0  0  0
    6.5038  -10.2370   11.7516 H   0  0  0  0  0  0  0  0  0  0  0  0
    5.3983   -9.1249    9.1296 H   0  0  0  0  0  0  0  0  0  0  0  0
    5.7417  -10.8308    9.5413 H   0  0  0  0  0  0  0  0  0  0  0  0
    2.5636  -10.3425    6.3852 H   0  0  0  0  0  0  0  0  0  0  0  0
  1  2  2  0
  2  3  1  0
  3  4  1  0
  4  5  1  0
  5  6  2  0
  6  7  1  0
  7  8  2  0
  8  9  1  0
  9 10  2  0
 10 11  1  0
 11 12  1  0
  2 13  1  0
 13 14  2  0
 14 15  1  0
 15 16  2  0
 16 17  1  0
 17 18  1  0
 18 19  1  0
 19 20  1  0
 20 21  1  0
 16 22  1  0
 22 23  2  0
 12  4  2  0
 23 13  1  0
 11  7  1  0
 21 17  1  0
  3 24  1  0
  5 25  1  0
  9 26  1  0
 10 27  1  0
 12 28  1  0
 14 29  1  0
 15 30  1  0
 18 31  1  0
 18 32  1  0
 19 33  1  0
 19 34  1  0
 20 35  1  0
 20 36  1  0
 21 37  1  0
 21 38  1  0
 23 39  1  0
M  END
>  <Energy>  (248) 
41.746139389560895

>  <compound_id>  (248) 
20893

>  <target_id>  (248) 
1

>  <reference_id>  (248) 
99

>  <inspiration_ids>  (248) 
[106, 99]

>  <energy_score>  (248) 
-11.113197875190707

>  <distance_score>  (248) 
12.043292752194349

>  <path>  (248) 
/opt/xchem-fragalysis-2/maxwin/BulkDock/SCRATCH/511017/C20893-P99/C20893-P99.minimised.mol

>  <scratch_subdir>  (248) 
/opt/xchem-fragalysis-2/maxwin/BulkDock/SCRATCH/511017/C20893-P99

>  <fragmenstein_runtime>  (248) 
17.33540630340576

>  <fragmenstein_outcome>  (248) 
too moved

>  <fragmenstein_mode>  (248) 
expansion

>  <fragmenstein_error>  (248) 


$$$$
C20907-P106
     RDKit          3D

 49 51  0  0  0  0  0  0  0  0999 V2000
    2.5183   -3.6669    8.4826 C   0  0  0  0  0  0  0  0  0  0  0  0
    1.4243   -2.5911    8.4948 C   0  0  0  0  0  0  0  0  0  0  0  0
    0.8790   -1.7078    9.9472 C   0  0  0  0  0  0  0  0  0  0  0  0
   -1.0689   -0.9277    9.3596 N   0  0  0  0  0  0  0  0  0  0  0  0
   -2.4214   -1.6627    8.7552 C   0  0  0  0  0  0  0  0  0  0  0  0
   -2.6701   -2.8235    8.5758 O   0  0  0  0  0  0  0  0  0  0  0  0
   -3.5252   -0.6030    8.5115 C   0  0  0  0  0  0  0  0  0  0  0  0
   -4.9458   -1.2621    7.5829 S   0  0  0  0  0  0  0  0  0  0  0  0
   -6.3051   -0.1010    7.8584 C   0  0  0  0  0  0  0  0  0  0  0  0
   -6.5546    0.7738    6.6207 C   0  0  0  0  0  0  0  0  0  0  0  0
   -5.7583    2.0177    6.6449 N   0  0  0  0  0  0  0  0  0  0  0  0
   -5.6273    2.6037    5.3006 C   0  0  0  0  0  0  0  0  0  0  0  0
   -5.2235    4.0450    5.5848 C   0  0  0  0  0  0  0  0  0  0  0  0
   -5.6198    4.2846    7.0350 C   0  0  0  0  0  0  0  0  0  0  0  0
   -6.4621    3.0754    7.3835 C   0  0  0  0  0  0  0  0  0  0  0  0
    2.6578   -2.1791   11.1135 C   0  0  0  0  0  0  0  0  0  0  0  0
    3.5902   -3.2667   11.9120 C   0  0  0  0  0  0  0  0  0  0  0  0
    5.2106   -2.8552   12.5321 N   0  0  0  0  0  0  0  0  0  0  0  0
    5.9267   -2.8027   14.0314 C   0  0  0  0  0  0  0  0  0  0  0  0
    7.0728   -2.1972   14.3225 C   0  0  0  0  0  0  0  0  0  0  0  0
    7.5163   -1.3039   13.2831 C   0  0  0  0  0  0  0  0  0  0  0  0
    6.9059   -0.8661   12.2411 N   0  0  0  0  0  0  0  0  0  0  0  0
    5.6188   -1.2336   12.0989 C   0  0  0  0  0  0  0  0  0  0  0  0
    4.2036   -1.0091   11.3994 N   0  0  0  0  0  0  0  0  0  0  0  0
    2.9215   -3.7717    9.4933 H   0  0  0  0  0  0  0  0  0  0  0  0
    3.3774   -3.5002    7.8062 H   0  0  0  0  0  0  0  0  0  0  0  0
    2.0013   -4.5883    8.1702 H   0  0  0  0  0  0  0  0  0  0  0  0
    0.8890   -3.4567    8.5408 H   0  0  0  0  0  0  0  0  0  0  0  0
    1.4886   -1.9756    7.5959 H   0  0  0  0  0  0  0  0  0  0  0  0
    1.3477   -0.7315    9.8978 H   0  0  0  0  0  0  0  0  0  0  0  0
   -1.1692    0.0319    9.2802 H   0  0  0  0  0  0  0  0  0  0  0  0
   -3.0957    0.3575    8.3435 H   0  0  0  0  0  0  0  0  0  0  0  0
   -4.0008   -0.4400    9.4789 H   0  0  0  0  0  0  0  0  0  0  0  0
   -6.1632    0.4797    8.7670 H   0  0  0  0  0  0  0  0  0  0  0  0
   -7.1971   -0.7161    8.0227 H   0  0  0  0  0  0  0  0  0  0  0  0
   -7.6253    1.0118    6.5620 H   0  0  0  0  0  0  0  0  0  0  0  0
   -6.3360    0.2002    5.7113 H   0  0  0  0  0  0  0  0  0  0  0  0
   -4.8637    2.1061    4.7025 H   0  0  0  0  0  0  0  0  0  0  0  0
   -6.5760    2.5814    4.7487 H   0  0  0  0  0  0  0  0  0  0  0  0
   -4.1471    4.1984    5.4554 H   0  0  0  0  0  0  0  0  0  0  0  0
   -5.7446    4.7334    4.9109 H   0  0  0  0  0  0  0  0  0  0  0  0
   -4.7237    4.3286    7.6664 H   0  0  0  0  0  0  0  0  0  0  0  0
   -6.1689    5.2225    7.1618 H   0  0  0  0  0  0  0  0  0  0  0  0
   -7.4899    3.2200    7.0234 H   0  0  0  0  0  0  0  0  0  0  0  0
   -6.5059    2.9018    8.4546 H   0  0  0  0  0  0  0  0  0  0  0  0
    3.4046   -4.3012   12.1520 H   0  0  0  0  0  0  0  0  0  0  0  0
    5.3411   -3.1571   14.8637 H   0  0  0  0  0  0  0  0  0  0  0  0
    7.5296   -2.1295   15.2927 H   0  0  0  0  0  0  0  0  0  0  0  0
    8.3762   -0.6796   13.6166 H   0  0  0  0  0  0  0  0  0  0  0  0
  1  2  1  0
  2  3  1  0
  3  4  1  0
  4  5  1  0
  5  6  2  0
  5  7  1  0
  7  8  1  0
  8  9  1  0
  9 10  1  0
 10 11  1  0
 11 12  1  0
 12 13  1  0
 13 14  1  0
 14 15  1  0
  3 16  1  0
 16 17  2  0
 17 18  1  0
 18 19  1  0
 19 20  2  0
 20 21  1  0
 21 22  2  0
 22 23  1  0
 23 24  2  0
 15 11  1  0
 24 16  1  0
 23 18  1  0
  1 25  1  0
  1 26  1  0
  1 27  1  0
  2 28  1  0
  2 29  1  0
  3 30  1  0
  4 31  1  0
  7 32  1  0
  7 33  1  0
  9 34  1  0
  9 35  1  0
 10 36  1  0
 10 37  1  0
 12 38  1  0
 12 39  1  0
 13 40  1  0
 13 41  1  0
 14 42  1  0
 14 43  1  0
 15 44  1  0
 15 45  1  0
 17 46  1  0
 19 47  1  0
 20 48  1  0
 21 49  1  0
M  END
>  <Energy>  (249) 
853.60425401000566

>  <compound_id>  (249) 
20907

>  <target_id>  (249) 
1

>  <reference_id>  (249) 
106

>  <inspiration_ids>  (249) 
[106, 99]

>  <energy_score>  (249) 
754.4089126616469

>  <distance_score>  (249) 
7.0090335583887535

>  <path>  (249) 
/opt/xchem-fragalysis-2/maxwin/BulkDock/SCRATCH/511017/C20907-P106/C20907-P106.minimised.mol

>  <scratch_subdir>  (249) 
/opt/xchem-fragalysis-2/maxwin/BulkDock/SCRATCH/511017/C20907-P106

>  <fragmenstein_runtime>  (249) 
27.82294201850891

>  <fragmenstein_outcome>  (249) 
too moved

>  <fragmenstein_mode>  (249) 
expansion

>  <fragmenstein_error>  (249) 


$$$$
C20907-P99
     RDKit          3D

 49 51  0  0  0  0  0  0  0  0999 V2000
    1.6358    1.2242   12.9043 C   0  0  0  0  0  0  0  0  0  0  0  0
    1.0938   -0.4180   12.6506 C   0  0  0  0  0  0  0  0  0  0  0  0
    1.1836   -1.5141   11.2111 C   0  0  0  0  0  0  0  0  0  0  0  0
   -0.7229   -1.1082   10.8515 N   0  0  0  0  0  0  0  0  0  0  0  0
   -1.8031   -1.2437    9.1858 C   0  0  0  0  0  0  0  0  0  0  0  0
   -1.4942   -1.6884    8.1132 O   0  0  0  0  0  0  0  0  0  0  0  0
   -3.4146   -0.5179    9.0778 C   0  0  0  0  0  0  0  0  0  0  0  0
   -4.3836   -1.4006    7.7605 S   0  0  0  0  0  0  0  0  0  0  0  0
   -5.9641   -0.5025    7.8805 C   0  0  0  0  0  0  0  0  0  0  0  0
   -7.0714   -1.0145    6.9369 C   0  0  0  0  0  0  0  0  0  0  0  0
   -6.8180   -1.1144    5.4999 N   0  0  0  0  0  0  0  0  0  0  0  0
   -6.0103   -0.0639    4.8845 C   0  0  0  0  0  0  0  0  0  0  0  0
   -4.9694   -0.7808    4.0386 C   0  0  0  0  0  0  0  0  0  0  0  0
   -5.6066   -2.1269    3.7674 C   0  0  0  0  0  0  0  0  0  0  0  0
   -6.3309   -2.4244    5.0648 C   0  0  0  0  0  0  0  0  0  0  0  0
    3.1568   -1.9076   11.1266 C   0  0  0  0  0  0  0  0  0  0  0  0
    4.0638   -2.9177   11.8054 C   0  0  0  0  0  0  0  0  0  0  0  0
    5.5436   -2.2649   12.3531 N   0  0  0  0  0  0  0  0  0  0  0  0
    6.1266   -2.2747   13.8842 C   0  0  0  0  0  0  0  0  0  0  0  0
    7.2128   -1.6232   14.2842 C   0  0  0  0  0  0  0  0  0  0  0  0
    7.6143   -0.6822   13.2794 C   0  0  0  0  0  0  0  0  0  0  0  0
    6.9881   -0.3378   12.2029 N   0  0  0  0  0  0  0  0  0  0  0  0
    5.7452   -0.8476   11.9397 C   0  0  0  0  0  0  0  0  0  0  0  0
    4.3069   -0.4608   11.1883 N   0  0  0  0  0  0  0  0  0  0  0  0
    1.1340    2.0901   12.4508 H   0  0  0  0  0  0  0  0  0  0  0  0
    2.6714    1.3836   12.6301 H   0  0  0  0  0  0  0  0  0  0  0  0
    1.3911    1.5216   13.9362 H   0  0  0  0  0  0  0  0  0  0  0  0
    0.0373   -0.3666   12.8695 H   0  0  0  0  0  0  0  0  0  0  0  0
    1.2687   -1.0394   13.4968 H   0  0  0  0  0  0  0  0  0  0  0  0
    1.3122   -1.3432   10.1365 H   0  0  0  0  0  0  0  0  0  0  0  0
   -1.2760   -0.7637   11.6225 H   0  0  0  0  0  0  0  0  0  0  0  0
   -3.1990    0.4451    8.5989 H   0  0  0  0  0  0  0  0  0  0  0  0
   -4.0986   -0.2728    9.8812 H   0  0  0  0  0  0  0  0  0  0  0  0
   -5.7728    0.5602    7.7008 H   0  0  0  0  0  0  0  0  0  0  0  0
   -6.3352   -0.5826    8.9061 H   0  0  0  0  0  0  0  0  0  0  0  0
   -7.4451   -1.9769    7.3124 H   0  0  0  0  0  0  0  0  0  0  0  0
   -7.9196   -0.3275    7.0570 H   0  0  0  0  0  0  0  0  0  0  0  0
   -6.6648    0.5295    4.2351 H   0  0  0  0  0  0  0  0  0  0  0  0
   -5.5334    0.6383    5.5705 H   0  0  0  0  0  0  0  0  0  0  0  0
   -4.7341   -0.2410    3.1168 H   0  0  0  0  0  0  0  0  0  0  0  0
   -4.0400   -0.9152    4.6041 H   0  0  0  0  0  0  0  0  0  0  0  0
   -6.3211   -2.0462    2.9390 H   0  0  0  0  0  0  0  0  0  0  0  0
   -4.8743   -2.8948    3.5125 H   0  0  0  0  0  0  0  0  0  0  0  0
   -7.1587   -3.1235    4.9074 H   0  0  0  0  0  0  0  0  0  0  0  0
   -5.6361   -2.8851    5.7718 H   0  0  0  0  0  0  0  0  0  0  0  0
    3.8476   -3.9088   12.1599 H   0  0  0  0  0  0  0  0  0  0  0  0
    5.5114   -2.7358   14.6378 H   0  0  0  0  0  0  0  0  0  0  0  0
    7.6357   -1.5654   15.2694 H   0  0  0  0  0  0  0  0  0  0  0  0
    8.4670   -0.0402   13.5996 H   0  0  0  0  0  0  0  0  0  0  0  0
  1  2  1  0
  2  3  1  0
  3  4  1  0
  4  5  1  0
  5  6  2  0
  5  7  1  0
  7  8  1  0
  8  9  1  0
  9 10  1  0
 10 11  1  0
 11 12  1  0
 12 13  1  0
 13 14  1  0
 14 15  1  0
  3 16  1  0
 16 17  2  0
 17 18  1  0
 18 19  1  0
 19 20  2  0
 20 21  1  0
 21 22  2  0
 22 23  1  0
 23 24  2  0
 15 11  1  0
 24 16  1  0
 23 18  1  0
  1 25  1  0
  1 26  1  0
  1 27  1  0
  2 28  1  0
  2 29  1  0
  3 30  1  0
  4 31  1  0
  7 32  1  0
  7 33  1  0
  9 34  1  0
  9 35  1  0
 10 36  1  0
 10 37  1  0
 12 38  1  0
 12 39  1  0
 13 40  1  0
 13 41  1  0
 14 42  1  0
 14 43  1  0
 15 44  1  0
 15 45  1  0
 17 46  1  0
 19 47  1  0
 20 48  1  0
 21 49  1  0
M  END
>  <Energy>  (250) 
706.93632331466199

>  <compound_id>  (250) 
20907

>  <target_id>  (250) 
1

>  <reference_id>  (250) 
99

>  <inspiration_ids>  (250) 
[106, 99]

>  <energy_score>  (250) 
607.7409819663181

>  <distance_score>  (250) 
6.73341747726887

>  <path>  (250) 
/opt/xchem-fragalysis-2/maxwin/BulkDock/SCRATCH/511017/C20907-P99/C20907-P99.minimised.mol

>  <scratch_subdir>  (250) 
/opt/xchem-fragalysis-2/maxwin/BulkDock/SCRATCH/511017/C20907-P99

>  <fragmenstein_runtime>  (250) 
26.625147581100464

>  <fragmenstein_outcome>  (250) 
too moved

>  <fragmenstein_mode>  (250) 
expansion

>  <fragmenstein_error>  (250) 


$$$$
C20909-P106
     RDKit          3D

 46 48  0  0  0  0  0  0  0  0999 V2000
   -3.4357   -5.4062    8.6489 C   0  0  0  0  0  0  0  0  0  0  0  0
   -2.1172   -5.2946    7.1429 C   0  0  0  0  0  0  0  0  0  0  0  0
   -0.1502   -5.8474    8.0861 C   0  0  0  0  0  0  0  0  0  0  0  0
    1.3671   -4.6784    8.8886 N   0  0  0  0  0  0  0  0  0  0  0  0
    2.5068   -4.8709   10.5234 C   0  0  0  0  0  0  0  0  0  0  0  0
    2.5200   -5.9126   11.3271 O   0  0  0  0  0  0  0  0  0  0  0  0
    3.3658   -3.8060   11.1194 C   0  0  0  0  0  0  0  0  0  0  0  0
    3.0608   -3.7214   12.6190 C   0  0  0  0  0  0  0  0  0  0  0  0
    4.1321   -3.1437   13.2677 N   0  0  0  0  0  0  0  0  0  0  0  0
    5.1571   -2.9227   14.6747 C   0  0  0  0  0  0  0  0  0  0  0  0
    6.4342   -2.4658   14.6701 C   0  0  0  0  0  0  0  0  0  0  0  0
    6.8851   -1.9280   13.4475 C   0  0  0  0  0  0  0  0  0  0  0  0
    6.2602   -2.1406   12.3680 N   0  0  0  0  0  0  0  0  0  0  0  0
    5.0684   -3.1233   12.3075 C   0  0  0  0  0  0  0  0  0  0  0  0
    4.6618   -4.0604   11.4656 N   0  0  0  0  0  0  0  0  0  0  0  0
   -3.4791   -4.0531    7.1387 N   0  0  0  0  0  0  0  0  0  0  0  0
   -3.5598   -2.6513    7.7180 C   0  0  0  0  0  0  0  0  0  0  0  0
   -2.7249   -1.9839    8.2652 O   0  0  0  0  0  0  0  0  0  0  0  0
   -5.0823   -2.1753    7.3197 C   0  0  0  0  0  0  0  0  0  0  0  0
   -5.3588   -0.7546    7.0684 N   0  0  0  0  0  0  0  0  0  0  0  0
   -5.4700    0.0477    8.2681 C   0  0  0  0  0  0  0  0  0  0  0  0
   -6.2856    1.2619    7.8090 C   0  0  0  0  0  0  0  0  0  0  0  0
   -6.8726    0.8826    6.4633 C   0  0  0  0  0  0  0  0  0  0  0  0
   -6.6755   -0.6108    6.4153 C   0  0  0  0  0  0  0  0  0  0  0  0
   -4.2161   -4.7155    8.7133 H   0  0  0  0  0  0  0  0  0  0  0  0
   -3.1566   -4.8035    9.5069 H   0  0  0  0  0  0  0  0  0  0  0  0
   -3.5253   -6.2428    9.2493 H   0  0  0  0  0  0  0  0  0  0  0  0
   -2.3460   -5.7974    6.1613 H   0  0  0  0  0  0  0  0  0  0  0  0
    0.1909   -6.5951    7.3848 H   0  0  0  0  0  0  0  0  0  0  0  0
   -0.3402   -6.5413    8.9236 H   0  0  0  0  0  0  0  0  0  0  0  0
    1.6127   -3.8115    8.3994 H   0  0  0  0  0  0  0  0  0  0  0  0
    2.2909   -4.2024   13.1996 H   0  0  0  0  0  0  0  0  0  0  0  0
    4.8054   -3.4785   15.5408 H   0  0  0  0  0  0  0  0  0  0  0  0
    7.1825   -2.4679   15.4358 H   0  0  0  0  0  0  0  0  0  0  0  0
    7.7519   -1.2725   13.4932 H   0  0  0  0  0  0  0  0  0  0  0  0
   -4.3444   -4.2728    6.6810 H   0  0  0  0  0  0  0  0  0  0  0  0
   -5.8302   -2.4965    8.0063 H   0  0  0  0  0  0  0  0  0  0  0  0
   -5.3669   -2.7406    6.4246 H   0  0  0  0  0  0  0  0  0  0  0  0
   -6.0320   -0.4702    9.0522 H   0  0  0  0  0  0  0  0  0  0  0  0
   -4.4867    0.3178    8.6590 H   0  0  0  0  0  0  0  0  0  0  0  0
   -5.6801    2.1660    7.7026 H   0  0  0  0  0  0  0  0  0  0  0  0
   -7.0877    1.4741    8.5239 H   0  0  0  0  0  0  0  0  0  0  0  0
   -7.9241    1.1705    6.3725 H   0  0  0  0  0  0  0  0  0  0  0  0
   -6.3141    1.3740    5.6572 H   0  0  0  0  0  0  0  0  0  0  0  0
   -7.4684   -1.1200    6.9797 H   0  0  0  0  0  0  0  0  0  0  0  0
   -6.6971   -0.9786    5.3867 H   0  0  0  0  0  0  0  0  0  0  0  0
  1  2  1  0
  2  3  1  0
  3  4  1  0
  4  5  1  0
  5  6  2  0
  5  7  1  0
  7  8  2  0
  8  9  1  0
  9 10  1  0
 10 11  2  0
 11 12  1  0
 12 13  2  0
 13 14  1  0
 14 15  2  0
  2 16  1  0
 16 17  1  0
 17 18  2  0
 17 19  1  0
 19 20  1  0
 20 21  1  0
 21 22  1  0
 22 23  1  0
 23 24  1  0
 15  7  1  0
 24 20  1  0
 14  9  1  0
  1 25  1  0
  1 26  1  0
  1 27  1  0
  2 28  1  0
  3 29  1  0
  3 30  1  0
  4 31  1  0
  8 32  1  0
 10 33  1  0
 11 34  1  0
 12 35  1  0
 16 36  1  0
 19 37  1  0
 19 38  1  0
 21 39  1  0
 21 40  1  0
 22 41  1  0
 22 42  1  0
 23 43  1  0
 23 44  1  0
 24 45  1  0
 24 46  1  0
M  END
>  <Energy>  (251) 
865.89936672150691

>  <compound_id>  (251) 
20909

>  <target_id>  (251) 
1

>  <reference_id>  (251) 
106

>  <inspiration_ids>  (251) 
[106, 99]

>  <energy_score>  (251) 
758.1328569502291

>  <distance_score>  (251) 
6.866953073016106

>  <path>  (251) 
/opt/xchem-fragalysis-2/maxwin/BulkDock/SCRATCH/511017/C20909-P106/C20909-P106.minimised.mol

>  <scratch_subdir>  (251) 
/opt/xchem-fragalysis-2/maxwin/BulkDock/SCRATCH/511017/C20909-P106

>  <fragmenstein_runtime>  (251) 
17.25794744491577

>  <fragmenstein_outcome>  (251) 
too moved

>  <fragmenstein_mode>  (251) 
expansion

>  <fragmenstein_error>  (251) 


$$$$
C20909-P99
     RDKit          3D

 46 48  0  0  0  0  0  0  0  0999 V2000
   -2.7771   -1.2544    5.2112 C   0  0  0  0  0  0  0  0  0  0  0  0
   -1.8749   -1.2403    6.6476 C   0  0  0  0  0  0  0  0  0  0  0  0
    0.0548   -1.4081    6.3330 C   0  0  0  0  0  0  0  0  0  0  0  0
    1.8400   -0.5465    7.1062 N   0  0  0  0  0  0  0  0  0  0  0  0
    2.2202    1.2655    7.6781 C   0  0  0  0  0  0  0  0  0  0  0  0
    1.4174    2.1940    7.7765 O   0  0  0  0  0  0  0  0  0  0  0  0
    3.7058    1.8259    7.9637 C   0  0  0  0  0  0  0  0  0  0  0  0
    4.0590    3.0184    7.3047 C   0  0  0  0  0  0  0  0  0  0  0  0
    5.3498    3.2968    7.6367 N   0  0  0  0  0  0  0  0  0  0  0  0
    6.2052    4.3140    7.2321 C   0  0  0  0  0  0  0  0  0  0  0  0
    7.4886    4.3042    7.6204 C   0  0  0  0  0  0  0  0  0  0  0  0
    7.8757    3.1024    8.3909 C   0  0  0  0  0  0  0  0  0  0  0  0
    7.0772    2.1664    8.7923 N   0  0  0  0  0  0  0  0  0  0  0  0
    5.7464    2.3078    8.4988 C   0  0  0  0  0  0  0  0  0  0  0  0
    4.6658    1.6661    8.9290 N   0  0  0  0  0  0  0  0  0  0  0  0
   -3.0572   -1.0944    7.4499 N   0  0  0  0  0  0  0  0  0  0  0  0
   -3.6481    0.0489    8.0403 C   0  0  0  0  0  0  0  0  0  0  0  0
   -3.2742    1.1768    8.0991 O   0  0  0  0  0  0  0  0  0  0  0  0
   -5.0215   -0.3878    8.5498 C   0  0  0  0  0  0  0  0  0  0  0  0
   -5.8599   -0.7866    7.3808 N   0  0  0  0  0  0  0  0  0  0  0  0
   -6.0930    0.3483    6.4727 C   0  0  0  0  0  0  0  0  0  0  0  0
   -7.2403   -0.1260    5.6006 C   0  0  0  0  0  0  0  0  0  0  0  0
   -7.9728   -1.1514    6.4485 C   0  0  0  0  0  0  0  0  0  0  0  0
   -7.2168   -1.1808    7.7661 C   0  0  0  0  0  0  0  0  0  0  0  0
   -3.3619   -0.3434    5.0900 H   0  0  0  0  0  0  0  0  0  0  0  0
   -3.5419   -2.0441    5.2170 H   0  0  0  0  0  0  0  0  0  0  0  0
   -2.1616   -1.3401    4.3166 H   0  0  0  0  0  0  0  0  0  0  0  0
   -1.9753   -2.2624    6.8965 H   0  0  0  0  0  0  0  0  0  0  0  0
   -0.2909   -1.1828    5.2766 H   0  0  0  0  0  0  0  0  0  0  0  0
    0.3972   -2.3442    6.3861 H   0  0  0  0  0  0  0  0  0  0  0  0
    2.6707   -1.0622    7.0357 H   0  0  0  0  0  0  0  0  0  0  0  0
    3.5065    3.5998    6.5823 H   0  0  0  0  0  0  0  0  0  0  0  0
    5.7809    5.0855    6.6030 H   0  0  0  0  0  0  0  0  0  0  0  0
    8.2219    5.0483    7.3507 H   0  0  0  0  0  0  0  0  0  0  0  0
    8.9507    3.0240    8.6185 H   0  0  0  0  0  0  0  0  0  0  0  0
   -3.7058   -1.8775    7.5226 H   0  0  0  0  0  0  0  0  0  0  0  0
   -4.8499   -1.2432    9.1753 H   0  0  0  0  0  0  0  0  0  0  0  0
   -5.5329    0.4060    9.0683 H   0  0  0  0  0  0  0  0  0  0  0  0
   -6.3894    1.2533    7.0191 H   0  0  0  0  0  0  0  0  0  0  0  0
   -5.2296    0.5847    5.8531 H   0  0  0  0  0  0  0  0  0  0  0  0
   -6.8677   -0.5981    4.6840 H   0  0  0  0  0  0  0  0  0  0  0  0
   -7.8932    0.7033    5.3101 H   0  0  0  0  0  0  0  0  0  0  0  0
   -9.0245   -0.8848    6.5940 H   0  0  0  0  0  0  0  0  0  0  0  0
   -7.9401   -2.1316    5.9580 H   0  0  0  0  0  0  0  0  0  0  0  0
   -7.6648   -0.4699    8.4720 H   0  0  0  0  0  0  0  0  0  0  0  0
   -7.2668   -2.1768    8.1943 H   0  0  0  0  0  0  0  0  0  0  0  0
  1  2  1  0
  2  3  1  0
  3  4  1  0
  4  5  1  0
  5  6  2  0
  5  7  1  0
  7  8  2  0
  8  9  1  0
  9 10  1  0
 10 11  2  0
 11 12  1  0
 12 13  2  0
 13 14  1  0
 14 15  2  0
  2 16  1  0
 16 17  1  0
 17 18  2  0
 17 19  1  0
 19 20  1  0
 20 21  1  0
 21 22  1  0
 22 23  1  0
 23 24  1  0
 15  7  1  0
 24 20  1  0
 14  9  1  0
  1 25  1  0
  1 26  1  0
  1 27  1  0
  2 28  1  0
  3 29  1  0
  3 30  1  0
  4 31  1  0
  8 32  1  0
 10 33  1  0
 11 34  1  0
 12 35  1  0
 16 36  1  0
 19 37  1  0
 19 38  1  0
 21 39  1  0
 21 40  1  0
 22 41  1  0
 22 42  1  0
 23 43  1  0
 23 44  1  0
 24 45  1  0
 24 46  1  0
M  END
>  <Energy>  (252) 
487.70982016052534

>  <compound_id>  (252) 
20909

>  <target_id>  (252) 
1

>  <reference_id>  (252) 
99

>  <inspiration_ids>  (252) 
[106, 99]

>  <energy_score>  (252) 
379.9433103892387

>  <distance_score>  (252) 
9.048126662272544

>  <path>  (252) 
/opt/xchem-fragalysis-2/maxwin/BulkDock/SCRATCH/511017/C20909-P99/C20909-P99.minimised.mol

>  <scratch_subdir>  (252) 
/opt/xchem-fragalysis-2/maxwin/BulkDock/SCRATCH/511017/C20909-P99

>  <fragmenstein_runtime>  (252) 
23.413647651672363

>  <fragmenstein_outcome>  (252) 
too moved

>  <fragmenstein_mode>  (252) 
expansion

>  <fragmenstein_error>  (252) 


$$$$
C20914-P106
     RDKit          3D

 49 51  0  0  0  0  0  0  0  0999 V2000
   -4.0104   -1.7034    8.2421 C   0  0  0  0  0  0  0  0  0  0  0  0
   -2.8445   -2.8669    8.2448 C   0  0  0  0  0  0  0  0  0  0  0  0
   -3.4840   -4.6250    9.3814 C   0  0  0  0  0  0  0  0  0  0  0  0
   -4.6516   -5.8817   10.5052 N   0  0  0  0  0  0  0  0  0  0  0  0
   -4.9368   -5.9548   12.1568 C   0  0  0  0  0  0  0  0  0  0  0  0
   -4.4385   -5.3131   13.0875 O   0  0  0  0  0  0  0  0  0  0  0  0
   -5.8300   -6.9966   12.6681 C   0  0  0  0  0  0  0  0  0  0  0  0
   -6.4584   -6.7861   14.0141 C   0  0  0  0  0  0  0  0  0  0  0  0
   -6.8821   -7.7004   14.8308 N   0  0  0  0  0  0  0  0  0  0  0  0
   -6.6097   -8.9852   14.4708 C   0  0  0  0  0  0  0  0  0  0  0  0
   -6.8612  -10.0976   15.1294 N   0  0  0  0  0  0  0  0  0  0  0  0
   -6.2281  -11.0951   14.4397 C   0  0  0  0  0  0  0  0  0  0  0  0
   -5.5902  -10.5944   13.3312 C   0  0  0  0  0  0  0  0  0  0  0  0
   -5.9107   -9.2606   13.2963 N   0  0  0  0  0  0  0  0  0  0  0  0
   -5.5387   -8.2771   12.3871 C   0  0  0  0  0  0  0  0  0  0  0  0
   -0.9124   -2.2679    8.5276 N   0  0  0  0  0  0  0  0  0  0  0  0
   -1.4594   -1.5435    7.3962 C   0  0  0  0  0  0  0  0  0  0  0  0
    0.8452   -3.4573    8.6701 C   0  0  0  0  0  0  0  0  0  0  0  0
    0.6657   -4.6756    8.4163 O   0  0  0  0  0  0  0  0  0  0  0  0
    2.6440   -3.3189    9.3763 C   0  0  0  0  0  0  0  0  0  0  0  0
    2.9840   -4.1160   11.1009 N   0  0  0  0  0  0  0  0  0  0  0  0
    4.0446   -3.5823   11.9325 C   0  0  0  0  0  0  0  0  0  0  0  0
    4.1908   -4.2365   13.3029 C   0  0  0  0  0  0  0  0  0  0  0  0
    2.9754   -5.0681   13.3542 C   0  0  0  0  0  0  0  0  0  0  0  0
    2.9879   -5.4431   11.8597 C   0  0  0  0  0  0  0  0  0  0  0  0
   -4.9464   -2.1498    7.8812 H   0  0  0  0  0  0  0  0  0  0  0  0
   -4.1526   -1.2551    9.2204 H   0  0  0  0  0  0  0  0  0  0  0  0
   -3.9473   -0.8356    7.5847 H   0  0  0  0  0  0  0  0  0  0  0  0
   -2.8994   -3.4731    7.3584 H   0  0  0  0  0  0  0  0  0  0  0  0
   -4.1883   -4.5493    8.5830 H   0  0  0  0  0  0  0  0  0  0  0  0
   -3.2954   -5.5587    8.8548 H   0  0  0  0  0  0  0  0  0  0  0  0
   -5.2628   -6.4573   10.0540 H   0  0  0  0  0  0  0  0  0  0  0  0
   -6.5986   -5.7305   14.3071 H   0  0  0  0  0  0  0  0  0  0  0  0
   -6.2486  -12.1192   14.7901 H   0  0  0  0  0  0  0  0  0  0  0  0
   -4.9748  -11.0637   12.5777 H   0  0  0  0  0  0  0  0  0  0  0  0
   -4.8982   -8.5833   11.5714 H   0  0  0  0  0  0  0  0  0  0  0  0
   -1.6634   -0.6435    8.0153 H   0  0  0  0  0  0  0  0  0  0  0  0
   -2.4098   -1.1934    7.0523 H   0  0  0  0  0  0  0  0  0  0  0  0
   -0.6267   -1.4831    6.7039 H   0  0  0  0  0  0  0  0  0  0  0  0
    2.5109   -4.3472    9.2658 H   0  0  0  0  0  0  0  0  0  0  0  0
    2.3467   -2.6012   10.1731 H   0  0  0  0  0  0  0  0  0  0  0  0
    4.9961   -3.8551   11.5655 H   0  0  0  0  0  0  0  0  0  0  0  0
    3.8650   -2.5544   11.8971 H   0  0  0  0  0  0  0  0  0  0  0  0
    4.4916   -3.6004   14.1115 H   0  0  0  0  0  0  0  0  0  0  0  0
    5.0088   -4.9587   13.3082 H   0  0  0  0  0  0  0  0  0  0  0  0
    3.0935   -5.9436   13.9999 H   0  0  0  0  0  0  0  0  0  0  0  0
    2.0888   -4.5160   13.6628 H   0  0  0  0  0  0  0  0  0  0  0  0
    2.2867   -6.2723   11.7694 H   0  0  0  0  0  0  0  0  0  0  0  0
    3.9599   -5.9586   11.7584 H   0  0  0  0  0  0  0  0  0  0  0  0
  1  2  1  0
  2  3  1  0
  3  4  1  0
  4  5  1  0
  5  6  2  0
  5  7  1  0
  7  8  1  0
  8  9  2  0
  9 10  1  0
 10 11  2  0
 11 12  1  0
 12 13  2  0
 13 14  1  0
 14 15  1  0
  2 16  1  0
 16 17  1  0
 16 18  1  0
 18 19  2  0
 18 20  1  0
 20 21  1  0
 21 22  1  0
 22 23  1  0
 23 24  1  0
 24 25  1  0
 15  7  2  0
 25 21  1  0
 14 10  1  0
  1 26  1  0
  1 27  1  0
  1 28  1  0
  2 29  1  0
  3 30  1  0
  3 31  1  0
  4 32  1  0
  8 33  1  0
 12 34  1  0
 13 35  1  0
 15 36  1  0
 17 37  1  0
 17 38  1  0
 17 39  1  0
 20 40  1  0
 20 41  1  0
 22 42  1  0
 22 43  1  0
 23 44  1  0
 23 45  1  0
 24 46  1  0
 24 47  1  0
 25 48  1  0
 25 49  1  0
M  END
>  <Energy>  (253) 
1074.6518756096862

>  <compound_id>  (253) 
20914

>  <target_id>  (253) 
1

>  <reference_id>  (253) 
106

>  <inspiration_ids>  (253) 
[106, 99]

>  <energy_score>  (253) 
949.6664487572018

>  <distance_score>  (253) 
9.258959697332488

>  <path>  (253) 
/opt/xchem-fragalysis-2/maxwin/BulkDock/SCRATCH/511017/C20914-P106/C20914-P106.minimised.mol

>  <scratch_subdir>  (253) 
/opt/xchem-fragalysis-2/maxwin/BulkDock/SCRATCH/511017/C20914-P106

>  <fragmenstein_runtime>  (253) 
20.80869174003601

>  <fragmenstein_outcome>  (253) 
too moved

>  <fragmenstein_mode>  (253) 
expansion

>  <fragmenstein_error>  (253) 


$$$$
C20914-P99
     RDKit          3D

 49 51  0  0  0  0  0  0  0  0999 V2000
   -3.2519   -3.6335    7.3920 C   0  0  0  0  0  0  0  0  0  0  0  0
   -2.8746   -2.1285    7.4589 C   0  0  0  0  0  0  0  0  0  0  0  0
   -4.8381   -1.7732    7.2441 C   0  0  0  0  0  0  0  0  0  0  0  0
   -6.0435   -2.9931    7.7840 N   0  0  0  0  0  0  0  0  0  0  0  0
   -7.6654   -2.8085    8.3355 C   0  0  0  0  0  0  0  0  0  0  0  0
   -8.3395   -1.7955    8.3706 O   0  0  0  0  0  0  0  0  0  0  0  0
   -8.4923   -4.3920    9.1656 C   0  0  0  0  0  0  0  0  0  0  0  0
   -7.0600   -5.1138   10.0639 C   0  0  0  0  0  0  0  0  0  0  0  0
   -6.3857   -5.2988   11.6297 N   0  0  0  0  0  0  0  0  0  0  0  0
   -7.4855   -5.2365   12.7370 C   0  0  0  0  0  0  0  0  0  0  0  0
   -7.3480   -5.2315   14.0539 N   0  0  0  0  0  0  0  0  0  0  0  0
   -8.4550   -4.6003   14.5219 C   0  0  0  0  0  0  0  0  0  0  0  0
   -9.3132   -4.2042   13.5140 C   0  0  0  0  0  0  0  0  0  0  0  0
   -8.8876   -4.6714   12.2385 N   0  0  0  0  0  0  0  0  0  0  0  0
   -9.4545   -4.5926   10.5434 C   0  0  0  0  0  0  0  0  0  0  0  0
   -1.6791   -1.5305    8.8666 N   0  0  0  0  0  0  0  0  0  0  0  0
   -2.3340   -0.2880    8.2077 C   0  0  0  0  0  0  0  0  0  0  0  0
    0.2941   -1.7783    9.1609 C   0  0  0  0  0  0  0  0  0  0  0  0
    0.9636   -2.3596    8.2146 O   0  0  0  0  0  0  0  0  0  0  0  0
    1.5429   -1.4815   10.8146 C   0  0  0  0  0  0  0  0  0  0  0  0
    3.4040   -1.9112   11.0670 N   0  0  0  0  0  0  0  0  0  0  0  0
    4.4906   -0.2963   11.0581 C   0  0  0  0  0  0  0  0  0  0  0  0
    6.3498   -0.7854   11.5007 C   0  0  0  0  0  0  0  0  0  0  0  0
    6.0135   -1.7938   12.5533 C   0  0  0  0  0  0  0  0  0  0  0  0
    4.3975   -2.8169   12.0215 C   0  0  0  0  0  0  0  0  0  0  0  0
   -2.6216   -4.3756    6.9388 H   0  0  0  0  0  0  0  0  0  0  0  0
   -4.0815   -3.7447    6.6993 H   0  0  0  0  0  0  0  0  0  0  0  0
   -3.4977   -4.0548    8.3473 H   0  0  0  0  0  0  0  0  0  0  0  0
   -2.4479   -1.7777    6.5155 H   0  0  0  0  0  0  0  0  0  0  0  0
   -4.9992   -1.7353    6.1613 H   0  0  0  0  0  0  0  0  0  0  0  0
   -5.1356   -0.8467    7.7365 H   0  0  0  0  0  0  0  0  0  0  0  0
   -5.7929   -3.9566    7.8011 H   0  0  0  0  0  0  0  0  0  0  0  0
   -7.2429   -4.4640   10.8214 H   0  0  0  0  0  0  0  0  0  0  0  0
   -8.5420   -4.3508   15.5725 H   0  0  0  0  0  0  0  0  0  0  0  0
  -10.0331   -3.4217   13.6411 H   0  0  0  0  0  0  0  0  0  0  0  0
  -10.4185   -4.9963   10.6213 H   0  0  0  0  0  0  0  0  0  0  0  0
   -3.3975   -0.4015    8.4321 H   0  0  0  0  0  0  0  0  0  0  0  0
   -2.3972    0.7018    8.6093 H   0  0  0  0  0  0  0  0  0  0  0  0
   -2.1267   -0.1477    7.1593 H   0  0  0  0  0  0  0  0  0  0  0  0
    0.8471   -1.3553   11.6492 H   0  0  0  0  0  0  0  0  0  0  0  0
    2.0426   -0.5886   11.2667 H   0  0  0  0  0  0  0  0  0  0  0  0
    4.0769    0.5725   10.5077 H   0  0  0  0  0  0  0  0  0  0  0  0
    5.0656   -0.0601   11.9604 H   0  0  0  0  0  0  0  0  0  0  0  0
    6.9700   -0.0944   12.0789 H   0  0  0  0  0  0  0  0  0  0  0  0
    7.0253   -0.9756   10.6838 H   0  0  0  0  0  0  0  0  0  0  0  0
    6.6924   -2.1604   13.3684 H   0  0  0  0  0  0  0  0  0  0  0  0
    5.9178   -1.0543   13.3829 H   0  0  0  0  0  0  0  0  0  0  0  0
    3.7824   -3.1697   12.8648 H   0  0  0  0  0  0  0  0  0  0  0  0
    4.6629   -3.7151   11.4776 H   0  0  0  0  0  0  0  0  0  0  0  0
  1  2  1  0
  2  3  1  0
  3  4  1  0
  4  5  1  0
  5  6  2  0
  5  7  1  0
  7  8  1  0
  8  9  2  0
  9 10  1  0
 10 11  2  0
 11 12  1  0
 12 13  2  0
 13 14  1  0
 14 15  1  0
  2 16  1  0
 16 17  1  0
 16 18  1  0
 18 19  2  0
 18 20  1  0
 20 21  1  0
 21 22  1  0
 22 23  1  0
 23 24  1  0
 24 25  1  0
 15  7  2  0
 25 21  1  0
 14 10  1  0
  1 26  1  0
  1 27  1  0
  1 28  1  0
  2 29  1  0
  3 30  1  0
  3 31  1  0
  4 32  1  0
  8 33  1  0
 12 34  1  0
 13 35  1  0
 15 36  1  0
 17 37  1  0
 17 38  1  0
 17 39  1  0
 20 40  1  0
 20 41  1  0
 22 42  1  0
 22 43  1  0
 23 44  1  0
 23 45  1  0
 24 46  1  0
 24 47  1  0
 25 48  1  0
 25 49  1  0
M  END
>  <Energy>  (254) 
1436.988218104904

>  <compound_id>  (254) 
20914

>  <target_id>  (254) 
1

>  <reference_id>  (254) 
99

>  <inspiration_ids>  (254) 
[106, 99]

>  <energy_score>  (254) 
1312.0027912524229

>  <distance_score>  (254) 
6.962283041189902

>  <path>  (254) 
/opt/xchem-fragalysis-2/maxwin/BulkDock/SCRATCH/511017/C20914-P99/C20914-P99.minimised.mol

>  <scratch_subdir>  (254) 
/opt/xchem-fragalysis-2/maxwin/BulkDock/SCRATCH/511017/C20914-P99

>  <fragmenstein_runtime>  (254) 
23.438997268676758

>  <fragmenstein_outcome>  (254) 
too moved

>  <fragmenstein_mode>  (254) 
expansion

>  <fragmenstein_error>  (254) 


$$$$
C20916-P106
     RDKit          3D

 43 46  0  0  0  0  0  0  0  0999 V2000
    2.6663   -3.0357   13.3435 O   0  0  0  0  0  0  0  0  0  0  0  0
    3.2440   -2.9602   12.2540 C   0  0  0  0  0  0  0  0  0  0  0  0
    2.4282   -2.4450   10.6542 N   0  0  0  0  0  0  0  0  0  0  0  0
    0.5054   -1.6605   10.2071 C   0  0  0  0  0  0  0  0  0  0  0  0
   -1.3495   -0.8418    9.1725 C   0  0  0  0  0  0  0  0  0  0  0  0
   -2.8672   -1.6796    8.4280 C   0  0  0  0  0  0  0  0  0  0  0  0
   -3.3725   -2.8791    7.7793 C   0  0  0  0  0  0  0  0  0  0  0  0
   -4.6609   -2.8478    7.1978 C   0  0  0  0  0  0  0  0  0  0  0  0
   -5.4715   -1.4401    7.6336 S   0  0  0  0  0  0  0  0  0  0  0  0
   -4.1593   -1.1912    8.7096 C   0  0  0  0  0  0  0  0  0  0  0  0
   -2.1384    0.9004    8.6129 N   0  0  0  0  0  0  0  0  0  0  0  0
   -3.5488    1.3095    8.8218 C   0  0  0  0  0  0  0  0  0  0  0  0
   -3.8959    3.0215    8.6386 C   0  0  0  0  0  0  0  0  0  0  0  0
   -2.8219    3.7193    7.9923 C   0  0  0  0  0  0  0  0  0  0  0  0
   -1.7523    2.6750    8.2724 C   0  0  0  0  0  0  0  0  0  0  0  0
    5.1744   -3.1899   12.5130 C   0  0  0  0  0  0  0  0  0  0  0  0
    6.3730   -1.9921   12.3022 C   0  0  0  0  0  0  0  0  0  0  0  0
    6.6237   -1.0811   13.2072 N   0  0  0  0  0  0  0  0  0  0  0  0
    6.3942   -1.6655   14.3420 C   0  0  0  0  0  0  0  0  0  0  0  0
    7.0138   -1.0637   15.4778 N   0  0  0  0  0  0  0  0  0  0  0  0
    8.2852   -0.9694   15.4676 C   0  0  0  0  0  0  0  0  0  0  0  0
    8.9038   -2.0702   14.8579 C   0  0  0  0  0  0  0  0  0  0  0  0
    7.9858   -2.9751   14.4124 C   0  0  0  0  0  0  0  0  0  0  0  0
    6.3037   -2.9273   14.0100 N   0  0  0  0  0  0  0  0  0  0  0  0
    3.0412   -2.5545    9.9515 H   0  0  0  0  0  0  0  0  0  0  0  0
    1.0235   -0.7414   10.1708 H   0  0  0  0  0  0  0  0  0  0  0  0
    0.8507   -2.1028    9.2416 H   0  0  0  0  0  0  0  0  0  0  0  0
   -2.0166   -0.4745    9.8582 H   0  0  0  0  0  0  0  0  0  0  0  0
   -2.8930   -3.8049    7.5690 H   0  0  0  0  0  0  0  0  0  0  0  0
   -5.1385   -3.5985    6.5869 H   0  0  0  0  0  0  0  0  0  0  0  0
   -4.4698   -0.6767    9.5856 H   0  0  0  0  0  0  0  0  0  0  0  0
   -3.8191    0.8678    9.7260 H   0  0  0  0  0  0  0  0  0  0  0  0
   -4.3220    0.9032    8.1633 H   0  0  0  0  0  0  0  0  0  0  0  0
   -3.9840    3.6011    9.5612 H   0  0  0  0  0  0  0  0  0  0  0  0
   -4.8391    3.1489    8.0800 H   0  0  0  0  0  0  0  0  0  0  0  0
   -2.6039    4.6807    8.4792 H   0  0  0  0  0  0  0  0  0  0  0  0
   -3.1211    3.9957    6.9797 H   0  0  0  0  0  0  0  0  0  0  0  0
   -1.1387    3.3583    8.8504 H   0  0  0  0  0  0  0  0  0  0  0  0
   -0.9498    2.7552    7.5557 H   0  0  0  0  0  0  0  0  0  0  0  0
    6.9831   -1.8522   11.4197 H   0  0  0  0  0  0  0  0  0  0  0  0
    8.8708   -0.2990   16.1099 H   0  0  0  0  0  0  0  0  0  0  0  0
    9.9379   -2.2987   15.0854 H   0  0  0  0  0  0  0  0  0  0  0  0
    8.5376   -3.8436   14.7496 H   0  0  0  0  0  0  0  0  0  0  0  0
  1  2  2  0
  2  3  1  0
  3  4  1  0
  4  5  1  0
  5  6  1  0
  6  7  1  0
  7  8  2  0
  8  9  1  0
  9 10  1  0
  5 11  1  0
 11 12  1  0
 12 13  1  0
 13 14  1  0
 14 15  1  0
  2 16  1  0
 16 17  2  0
 17 18  1  0
 18 19  2  0
 19 20  1  0
 20 21  2  0
 21 22  1  0
 22 23  2  0
 23 24  1  0
 10  6  2  0
 15 11  1  0
 24 16  1  0
 24 19  1  0
  3 25  1  0
  4 26  1  0
  4 27  1  0
  5 28  1  0
  7 29  1  0
  8 30  1  0
 10 31  1  0
 12 32  1  0
 12 33  1  0
 13 34  1  0
 13 35  1  0
 14 36  1  0
 14 37  1  0
 15 38  1  0
 15 39  1  0
 17 40  1  0
 21 41  1  0
 22 42  1  0
 23 43  1  0
M  END
>  <Energy>  (255) 
1275.5715932433984

>  <compound_id>  (255) 
20916

>  <target_id>  (255) 
1

>  <reference_id>  (255) 
106

>  <inspiration_ids>  (255) 
[106, 99]

>  <energy_score>  (255) 
1202.6974256741742

>  <distance_score>  (255) 
5.889961813599275

>  <path>  (255) 
/opt/xchem-fragalysis-2/maxwin/BulkDock/SCRATCH/511017/C20916-P106/C20916-P106.minimised.mol

>  <scratch_subdir>  (255) 
/opt/xchem-fragalysis-2/maxwin/BulkDock/SCRATCH/511017/C20916-P106

>  <fragmenstein_runtime>  (255) 
15.712690114974976

>  <fragmenstein_outcome>  (255) 
too moved

>  <fragmenstein_mode>  (255) 
expansion

>  <fragmenstein_error>  (255) 


$$$$
C20916-P99
     RDKit          3D

 43 46  0  0  0  0  0  0  0  0999 V2000
    0.8861   -0.3852   12.9725 O   0  0  0  0  0  0  0  0  0  0  0  0
    0.3721   -1.4626   13.2023 C   0  0  0  0  0  0  0  0  0  0  0  0
   -1.6122   -1.7239   12.9760 N   0  0  0  0  0  0  0  0  0  0  0  0
   -3.0040   -0.5478   12.3477 C   0  0  0  0  0  0  0  0  0  0  0  0
   -4.2529   -0.2882   10.5738 C   0  0  0  0  0  0  0  0  0  0  0  0
   -6.0586   -0.2415    9.8615 C   0  0  0  0  0  0  0  0  0  0  0  0
   -6.5591   -1.0422    8.6907 C   0  0  0  0  0  0  0  0  0  0  0  0
   -7.8198   -0.7478    8.2225 C   0  0  0  0  0  0  0  0  0  0  0  0
   -8.5443    0.4323    9.1927 S   0  0  0  0  0  0  0  0  0  0  0  0
   -7.2141    0.4014   10.2764 C   0  0  0  0  0  0  0  0  0  0  0  0
   -3.9529   -0.6983    8.9234 N   0  0  0  0  0  0  0  0  0  0  0  0
   -4.1367    0.3489    7.9068 C   0  0  0  0  0  0  0  0  0  0  0  0
   -4.3350   -0.4851    6.6418 C   0  0  0  0  0  0  0  0  0  0  0  0
   -3.3905   -1.6304    6.8522 C   0  0  0  0  0  0  0  0  0  0  0  0
   -3.0528   -1.6355    8.3349 C   0  0  0  0  0  0  0  0  0  0  0  0
    1.8161   -2.8372   13.6952 C   0  0  0  0  0  0  0  0  0  0  0  0
    2.0805   -4.2405   13.5196 C   0  0  0  0  0  0  0  0  0  0  0  0
    3.0273   -4.5561   12.4508 N   0  0  0  0  0  0  0  0  0  0  0  0
    3.7448   -3.4510   12.2782 C   0  0  0  0  0  0  0  0  0  0  0  0
    4.9346   -2.9934   11.7816 N   0  0  0  0  0  0  0  0  0  0  0  0
    5.7938   -2.0817   12.3906 C   0  0  0  0  0  0  0  0  0  0  0  0
    6.0806   -2.1056   13.9439 C   0  0  0  0  0  0  0  0  0  0  0  0
    4.9374   -2.5627   14.5227 C   0  0  0  0  0  0  0  0  0  0  0  0
    3.5030   -2.9755   13.4882 N   0  0  0  0  0  0  0  0  0  0  0  0
   -1.8738   -2.6758   13.3001 H   0  0  0  0  0  0  0  0  0  0  0  0
   -3.0247    0.2420   13.0678 H   0  0  0  0  0  0  0  0  0  0  0  0
   -1.8084   -0.5050   11.9146 H   0  0  0  0  0  0  0  0  0  0  0  0
   -3.7809    0.5602   10.1524 H   0  0  0  0  0  0  0  0  0  0  0  0
   -5.9725   -1.8055    8.2037 H   0  0  0  0  0  0  0  0  0  0  0  0
   -8.3361   -1.1836    7.3783 H   0  0  0  0  0  0  0  0  0  0  0  0
   -7.3101    0.9864   11.1515 H   0  0  0  0  0  0  0  0  0  0  0  0
   -3.2259    0.9468    7.9098 H   0  0  0  0  0  0  0  0  0  0  0  0
   -4.9820    1.0290    8.0259 H   0  0  0  0  0  0  0  0  0  0  0  0
   -4.1669   -0.0064    5.6809 H   0  0  0  0  0  0  0  0  0  0  0  0
   -5.3564   -0.8534    6.5334 H   0  0  0  0  0  0  0  0  0  0  0  0
   -2.4847   -1.4504    6.2767 H   0  0  0  0  0  0  0  0  0  0  0  0
   -3.8575   -2.5687    6.5362 H   0  0  0  0  0  0  0  0  0  0  0  0
   -3.1687   -2.6523    8.6677 H   0  0  0  0  0  0  0  0  0  0  0  0
   -2.0327   -1.3041    8.4560 H   0  0  0  0  0  0  0  0  0  0  0  0
    1.4164   -4.9701   13.9149 H   0  0  0  0  0  0  0  0  0  0  0  0
    6.5527   -1.4708   11.8370 H   0  0  0  0  0  0  0  0  0  0  0  0
    7.0319   -1.8287   14.3631 H   0  0  0  0  0  0  0  0  0  0  0  0
    4.7816   -2.7683   15.5692 H   0  0  0  0  0  0  0  0  0  0  0  0
  1  2  2  0
  2  3  1  0
  3  4  1  0
  4  5  1  0
  5  6  1  0
  6  7  1  0
  7  8  2  0
  8  9  1  0
  9 10  1  0
  5 11  1  0
 11 12  1  0
 12 13  1  0
 13 14  1  0
 14 15  1  0
  2 16  1  0
 16 17  2  0
 17 18  1  0
 18 19  2  0
 19 20  1  0
 20 21  2  0
 21 22  1  0
 22 23  2  0
 23 24  1  0
 10  6  2  0
 15 11  1  0
 24 16  1  0
 24 19  1  0
  3 25  1  0
  4 26  1  0
  4 27  1  0
  5 28  1  0
  7 29  1  0
  8 30  1  0
 10 31  1  0
 12 32  1  0
 12 33  1  0
 13 34  1  0
 13 35  1  0
 14 36  1  0
 14 37  1  0
 15 38  1  0
 15 39  1  0
 17 40  1  0
 21 41  1  0
 22 42  1  0
 23 43  1  0
M  END
>  <Energy>  (256) 
881.38680936777541

>  <compound_id>  (256) 
20916

>  <target_id>  (256) 
1

>  <reference_id>  (256) 
99

>  <inspiration_ids>  (256) 
[106, 99]

>  <energy_score>  (256) 
808.5126417985671

>  <distance_score>  (256) 
7.393893825869572

>  <path>  (256) 
/opt/xchem-fragalysis-2/maxwin/BulkDock/SCRATCH/511017/C20916-P99/C20916-P99.minimised.mol

>  <scratch_subdir>  (256) 
/opt/xchem-fragalysis-2/maxwin/BulkDock/SCRATCH/511017/C20916-P99

>  <fragmenstein_runtime>  (256) 
9.651652097702026

>  <fragmenstein_outcome>  (256) 
too moved

>  <fragmenstein_mode>  (256) 
expansion

>  <fragmenstein_error>  (256) 


$$$$
C20921-P106
     RDKit          3D

 43 46  0  0  0  0  0  0  0  0999 V2000
   -5.0113   -3.9960    6.7681 O   0  0  0  0  0  0  0  0  0  0  0  0
   -4.7894   -2.9331    7.2493 C   0  0  0  0  0  0  0  0  0  0  0  0
   -5.8705   -1.8798    6.8740 C   0  0  0  0  0  0  0  0  0  0  0  0
   -5.7688   -0.5239    7.4592 N   0  0  0  0  0  0  0  0  0  0  0  0
   -6.0845    0.4707    6.4091 C   0  0  0  0  0  0  0  0  0  0  0  0
   -6.6478    1.6518    7.1620 C   0  0  0  0  0  0  0  0  0  0  0  0
   -7.5602    0.9614    8.1415 C   0  0  0  0  0  0  0  0  0  0  0  0
   -6.8358   -0.3342    8.4748 C   0  0  0  0  0  0  0  0  0  0  0  0
   -3.7763   -2.5170    8.1734 N   0  0  0  0  0  0  0  0  0  0  0  0
   -2.6363   -3.3749    8.9918 C   0  0  0  0  0  0  0  0  0  0  0  0
   -1.7014   -4.8617   10.1705 C   0  0  0  0  0  0  0  0  0  0  0  0
   -0.8920   -3.5397   11.6441 C   0  0  0  0  0  0  0  0  0  0  0  0
    0.5180   -2.0626   10.6716 C   0  0  0  0  0  0  0  0  0  0  0  0
    2.6059   -2.3239   11.0821 C   0  0  0  0  0  0  0  0  0  0  0  0
    3.5644   -3.3287   11.9679 C   0  0  0  0  0  0  0  0  0  0  0  0
    5.1977   -2.8710   12.5397 N   0  0  0  0  0  0  0  0  0  0  0  0
    5.9446   -2.7877   14.0303 C   0  0  0  0  0  0  0  0  0  0  0  0
    7.0218   -2.0582   14.3227 C   0  0  0  0  0  0  0  0  0  0  0  0
    7.4389   -1.1488   13.2806 C   0  0  0  0  0  0  0  0  0  0  0  0
    6.8694   -0.8651   12.1649 N   0  0  0  0  0  0  0  0  0  0  0  0
    5.5811   -1.2479   12.0973 C   0  0  0  0  0  0  0  0  0  0  0  0
    4.1192   -1.1231   11.4358 N   0  0  0  0  0  0  0  0  0  0  0  0
    0.4230   -2.0934    9.1961 C   0  0  0  0  0  0  0  0  0  0  0  0
   -1.4680   -1.9666    8.4965 C   0  0  0  0  0  0  0  0  0  0  0  0
   -6.7794   -2.3630    7.2659 H   0  0  0  0  0  0  0  0  0  0  0  0
   -6.1257   -1.8938    5.8167 H   0  0  0  0  0  0  0  0  0  0  0  0
   -6.8455    0.1112    5.7029 H   0  0  0  0  0  0  0  0  0  0  0  0
   -5.2008    0.7569    5.8447 H   0  0  0  0  0  0  0  0  0  0  0  0
   -7.1864    2.3468    6.5114 H   0  0  0  0  0  0  0  0  0  0  0  0
   -5.8593    2.2063    7.6790 H   0  0  0  0  0  0  0  0  0  0  0  0
   -8.5162    0.7332    7.6530 H   0  0  0  0  0  0  0  0  0  0  0  0
   -7.7778    1.5709    9.0188 H   0  0  0  0  0  0  0  0  0  0  0  0
   -7.5770   -1.1370    8.5426 H   0  0  0  0  0  0  0  0  0  0  0  0
   -6.3655   -0.2633    9.4512 H   0  0  0  0  0  0  0  0  0  0  0  0
   -3.8376   -1.5094    8.3020 H   0  0  0  0  0  0  0  0  0  0  0  0
   -2.3813   -5.7245   10.1597 H   0  0  0  0  0  0  0  0  0  0  0  0
   -1.2707   -3.6921   12.7138 H   0  0  0  0  0  0  0  0  0  0  0  0
    3.2904   -4.2423   12.4679 H   0  0  0  0  0  0  0  0  0  0  0  0
    5.3914   -3.1724   14.8697 H   0  0  0  0  0  0  0  0  0  0  0  0
    7.4663   -1.9576   15.2943 H   0  0  0  0  0  0  0  0  0  0  0  0
    8.3198   -0.5441   13.5637 H   0  0  0  0  0  0  0  0  0  0  0  0
    1.2510   -2.3751    8.5332 H   0  0  0  0  0  0  0  0  0  0  0  0
   -1.9634   -0.9824    8.5961 H   0  0  0  0  0  0  0  0  0  0  0  0
  1  2  2  0
  2  3  1  0
  3  4  1  0
  4  5  1  0
  5  6  1  0
  6  7  1  0
  7  8  1  0
  2  9  1  0
  9 10  1  0
 10 11  2  0
 11 12  1  0
 12 13  2  0
 13 14  1  0
 14 15  2  0
 15 16  1  0
 16 17  1  0
 17 18  2  0
 18 19  1  0
 19 20  2  0
 20 21  1  0
 21 22  2  0
 13 23  1  0
 23 24  2  0
  8  4  1  0
 24 10  1  0
 22 14  1  0
 21 16  1  0
  3 25  1  0
  3 26  1  0
  5 27  1  0
  5 28  1  0
  6 29  1  0
  6 30  1  0
  7 31  1  0
  7 32  1  0
  8 33  1  0
  8 34  1  0
  9 35  1  0
 11 36  1  0
 12 37  1  0
 15 38  1  0
 17 39  1  0
 18 40  1  0
 19 41  1  0
 23 42  1  0
 24 43  1  0
M  END
>  <Energy>  (257) 
1755.3644030184382

>  <compound_id>  (257) 
20921

>  <target_id>  (257) 
1

>  <reference_id>  (257) 
106

>  <inspiration_ids>  (257) 
[106, 99]

>  <energy_score>  (257) 
1626.1174301577207

>  <distance_score>  (257) 
6.65724691029211

>  <path>  (257) 
/opt/xchem-fragalysis-2/maxwin/BulkDock/SCRATCH/511017/C20921-P106/C20921-P106.minimised.mol

>  <scratch_subdir>  (257) 
/opt/xchem-fragalysis-2/maxwin/BulkDock/SCRATCH/511017/C20921-P106

>  <fragmenstein_runtime>  (257) 
13.130097150802612

>  <fragmenstein_outcome>  (257) 
too moved

>  <fragmenstein_mode>  (257) 
expansion

>  <fragmenstein_error>  (257) 


$$$$
C20921-P99
     RDKit          3D

 43 46  0  0  0  0  0  0  0  0999 V2000
   -5.2220   -6.7436   11.3624 O   0  0  0  0  0  0  0  0  0  0  0  0
   -4.8887   -6.1253   10.3403 C   0  0  0  0  0  0  0  0  0  0  0  0
   -6.5247   -5.5463    9.3381 C   0  0  0  0  0  0  0  0  0  0  0  0
   -6.8855   -4.6630    7.8522 N   0  0  0  0  0  0  0  0  0  0  0  0
   -6.1631   -3.4959    7.2648 C   0  0  0  0  0  0  0  0  0  0  0  0
   -6.9358   -3.2702    5.9805 C   0  0  0  0  0  0  0  0  0  0  0  0
   -8.3652   -3.3883    6.4616 C   0  0  0  0  0  0  0  0  0  0  0  0
   -8.3053   -4.3979    7.6090 C   0  0  0  0  0  0  0  0  0  0  0  0
   -3.2653   -5.6413    9.8076 N   0  0  0  0  0  0  0  0  0  0  0  0
   -1.5397   -5.9735   10.6028 C   0  0  0  0  0  0  0  0  0  0  0  0
   -0.2134   -6.4124    9.9430 C   0  0  0  0  0  0  0  0  0  0  0  0
    1.0503   -6.4730   10.6797 C   0  0  0  0  0  0  0  0  0  0  0  0
    1.2593   -5.7975   11.8693 C   0  0  0  0  0  0  0  0  0  0  0  0
    2.5661   -4.8622   12.3396 C   0  0  0  0  0  0  0  0  0  0  0  0
    2.6794   -4.1983   13.5570 C   0  0  0  0  0  0  0  0  0  0  0  0
    3.6356   -3.1889   13.4137 N   0  0  0  0  0  0  0  0  0  0  0  0
    4.9453   -2.6379   14.5682 C   0  0  0  0  0  0  0  0  0  0  0  0
    6.1074   -2.0252   14.1792 C   0  0  0  0  0  0  0  0  0  0  0  0
    6.0982   -1.8115   12.7125 C   0  0  0  0  0  0  0  0  0  0  0  0
    5.3160   -2.6251   11.9415 N   0  0  0  0  0  0  0  0  0  0  0  0
    4.1360   -3.3268   12.1001 C   0  0  0  0  0  0  0  0  0  0  0  0
    3.6980   -4.4837   11.5802 N   0  0  0  0  0  0  0  0  0  0  0  0
   -0.1746   -5.7227   12.7150 C   0  0  0  0  0  0  0  0  0  0  0  0
   -1.3417   -5.6911   12.1332 C   0  0  0  0  0  0  0  0  0  0  0  0
   -7.2294   -5.0120    9.9707 H   0  0  0  0  0  0  0  0  0  0  0  0
   -6.9276   -6.5626    9.2839 H   0  0  0  0  0  0  0  0  0  0  0  0
   -5.1047   -3.6481    7.0412 H   0  0  0  0  0  0  0  0  0  0  0  0
   -6.2517   -2.5582    7.8284 H   0  0  0  0  0  0  0  0  0  0  0  0
   -6.7095   -4.0491    5.2429 H   0  0  0  0  0  0  0  0  0  0  0  0
   -6.7302   -2.2956    5.5284 H   0  0  0  0  0  0  0  0  0  0  0  0
   -9.0406   -3.7048    5.6609 H   0  0  0  0  0  0  0  0  0  0  0  0
   -8.7162   -2.4198    6.8379 H   0  0  0  0  0  0  0  0  0  0  0  0
   -8.8101   -3.9907    8.4864 H   0  0  0  0  0  0  0  0  0  0  0  0
   -8.8057   -5.3064    7.2804 H   0  0  0  0  0  0  0  0  0  0  0  0
   -3.3150   -5.2259    8.8935 H   0  0  0  0  0  0  0  0  0  0  0  0
   -0.1736   -6.7493    8.9070 H   0  0  0  0  0  0  0  0  0  0  0  0
    1.8012   -7.0934   10.3388 H   0  0  0  0  0  0  0  0  0  0  0  0
    2.2752   -4.4364   14.5043 H   0  0  0  0  0  0  0  0  0  0  0  0
    4.7658   -3.0303   15.5657 H   0  0  0  0  0  0  0  0  0  0  0  0
    6.9798   -1.7709   14.7551 H   0  0  0  0  0  0  0  0  0  0  0  0
    6.8681   -1.1649   12.2611 H   0  0  0  0  0  0  0  0  0  0  0  0
   -0.2044   -5.4950   13.8024 H   0  0  0  0  0  0  0  0  0  0  0  0
   -2.0550   -5.1696   12.7862 H   0  0  0  0  0  0  0  0  0  0  0  0
  1  2  2  0
  2  3  1  0
  3  4  1  0
  4  5  1  0
  5  6  1  0
  6  7  1  0
  7  8  1  0
  2  9  1  0
  9 10  1  0
 10 11  2  0
 11 12  1  0
 12 13  2  0
 13 14  1  0
 14 15  2  0
 15 16  1  0
 16 17  1  0
 17 18  2  0
 18 19  1  0
 19 20  2  0
 20 21  1  0
 21 22  2  0
 13 23  1  0
 23 24  2  0
  8  4  1  0
 24 10  1  0
 22 14  1  0
 21 16  1  0
  3 25  1  0
  3 26  1  0
  5 27  1  0
  5 28  1  0
  6 29  1  0
  6 30  1  0
  7 31  1  0
  7 32  1  0
  8 33  1  0
  8 34  1  0
  9 35  1  0
 11 36  1  0
 12 37  1  0
 15 38  1  0
 17 39  1  0
 18 40  1  0
 19 41  1  0
 23 42  1  0
 24 43  1  0
M  END
>  <Energy>  (258) 
527.43288970806998

>  <compound_id>  (258) 
20921

>  <target_id>  (258) 
1

>  <reference_id>  (258) 
99

>  <inspiration_ids>  (258) 
[106, 99]

>  <energy_score>  (258) 
398.18591684730757

>  <distance_score>  (258) 
7.8178413088256535

>  <path>  (258) 
/opt/xchem-fragalysis-2/maxwin/BulkDock/SCRATCH/511017/C20921-P99/C20921-P99.minimised.mol

>  <scratch_subdir>  (258) 
/opt/xchem-fragalysis-2/maxwin/BulkDock/SCRATCH/511017/C20921-P99

>  <fragmenstein_runtime>  (258) 
18.304706573486328

>  <fragmenstein_outcome>  (258) 
too moved

>  <fragmenstein_mode>  (258) 
expansion

>  <fragmenstein_error>  (258) 


$$$$
C20922-P106
     RDKit          3D

 43 46  0  0  0  0  0  0  0  0999 V2000
   -6.2255   -1.1055    7.3689 O   0  0  0  0  0  0  0  0  0  0  0  0
   -5.5111   -2.0675    7.2350 C   0  0  0  0  0  0  0  0  0  0  0  0
   -6.1339   -3.3360    6.6175 C   0  0  0  0  0  0  0  0  0  0  0  0
   -7.5090   -3.1841    6.1256 N   0  0  0  0  0  0  0  0  0  0  0  0
   -8.5043   -2.9953    7.1829 C   0  0  0  0  0  0  0  0  0  0  0  0
   -9.7053   -2.4941    6.4124 C   0  0  0  0  0  0  0  0  0  0  0  0
   -9.0894   -1.5669    5.3848 C   0  0  0  0  0  0  0  0  0  0  0  0
   -7.7212   -2.1663    5.0981 C   0  0  0  0  0  0  0  0  0  0  0  0
   -4.0486   -2.2348    7.4918 N   0  0  0  0  0  0  0  0  0  0  0  0
   -3.0518   -1.2788    7.8812 C   0  0  0  0  0  0  0  0  0  0  0  0
   -3.7545   -0.2667    8.3892 C   0  0  0  0  0  0  0  0  0  0  0  0
   -2.7876    0.2623    9.0516 C   0  0  0  0  0  0  0  0  0  0  0  0
   -1.6328   -0.8119    9.4873 C   0  0  0  0  0  0  0  0  0  0  0  0
    0.0624   -1.2190    9.9464 C   0  0  0  0  0  0  0  0  0  0  0  0
    1.8096   -2.1368   10.4645 C   0  0  0  0  0  0  0  0  0  0  0  0
    3.3005   -2.2521   11.3427 C   0  0  0  0  0  0  0  0  0  0  0  0
    4.2939   -3.1711   11.9344 N   0  0  0  0  0  0  0  0  0  0  0  0
    5.7554   -2.5995   12.6400 C   0  0  0  0  0  0  0  0  0  0  0  0
    6.0746   -2.6274   13.9484 C   0  0  0  0  0  0  0  0  0  0  0  0
    4.8081   -3.0882   14.5170 C   0  0  0  0  0  0  0  0  0  0  0  0
    3.4544   -3.6827   13.8202 N   0  0  0  0  0  0  0  0  0  0  0  0
    3.3036   -3.8587   12.4154 C   0  0  0  0  0  0  0  0  0  0  0  0
    2.4150   -3.7364   11.2407 N   0  0  0  0  0  0  0  0  0  0  0  0
   -1.3213   -1.4967    8.4992 C   0  0  0  0  0  0  0  0  0  0  0  0
   -6.1741   -4.0994    7.3783 H   0  0  0  0  0  0  0  0  0  0  0  0
   -5.5016   -3.6848    5.8049 H   0  0  0  0  0  0  0  0  0  0  0  0
   -8.7209   -3.9353    7.6990 H   0  0  0  0  0  0  0  0  0  0  0  0
   -8.2165   -2.2529    7.9333 H   0  0  0  0  0  0  0  0  0  0  0  0
  -10.2155   -3.3262    5.9113 H   0  0  0  0  0  0  0  0  0  0  0  0
  -10.4325   -1.9825    7.0494 H   0  0  0  0  0  0  0  0  0  0  0  0
   -9.7079   -1.4835    4.4862 H   0  0  0  0  0  0  0  0  0  0  0  0
   -8.9753   -0.5646    5.8154 H   0  0  0  0  0  0  0  0  0  0  0  0
   -6.9816   -1.3626    5.0768 H   0  0  0  0  0  0  0  0  0  0  0  0
   -7.7137   -2.6462    4.1134 H   0  0  0  0  0  0  0  0  0  0  0  0
   -3.7939   -3.2077    7.3491 H   0  0  0  0  0  0  0  0  0  0  0  0
   -4.6835    0.1769    8.1148 H   0  0  0  0  0  0  0  0  0  0  0  0
   -2.6633    1.3261    8.9757 H   0  0  0  0  0  0  0  0  0  0  0  0
   -2.5188   -1.9213    9.4850 H   0  0  0  0  0  0  0  0  0  0  0  0
    3.9140   -1.3439   11.5044 H   0  0  0  0  0  0  0  0  0  0  0  0
    6.4709   -1.9624   12.0808 H   0  0  0  0  0  0  0  0  0  0  0  0
    6.9394   -2.2515   14.4602 H   0  0  0  0  0  0  0  0  0  0  0  0
    4.8238   -3.4081   15.5765 H   0  0  0  0  0  0  0  0  0  0  0  0
   -1.0513   -1.5263    7.3821 H   0  0  0  0  0  0  0  0  0  0  0  0
  1  2  2  0
  2  3  1  0
  3  4  1  0
  4  5  1  0
  5  6  1  0
  6  7  1  0
  7  8  1  0
  2  9  1  0
  9 10  1  0
 10 11  2  0
 11 12  1  0
 12 13  2  0
 13 14  1  0
 14 15  1  0
 15 16  2  0
 16 17  1  0
 17 18  1  0
 18 19  2  0
 19 20  1  0
 20 21  2  0
 21 22  1  0
 22 23  2  0
 14 24  2  0
  8  4  1  0
 24 10  1  0
 23 15  1  0
 22 17  1  0
  3 25  1  0
  3 26  1  0
  5 27  1  0
  5 28  1  0
  6 29  1  0
  6 30  1  0
  7 31  1  0
  7 32  1  0
  8 33  1  0
  8 34  1  0
  9 35  1  0
 11 36  1  0
 12 37  1  0
 13 38  1  0
 16 39  1  0
 18 40  1  0
 19 41  1  0
 20 42  1  0
 24 43  1  0
M  END
>  <Energy>  (259) 
1400.2519404993816

>  <compound_id>  (259) 
20922

>  <target_id>  (259) 
1

>  <reference_id>  (259) 
106

>  <inspiration_ids>  (259) 
[106, 99]

>  <energy_score>  (259) 
1300.2973145847523

>  <distance_score>  (259) 
7.856331782547193

>  <path>  (259) 
/opt/xchem-fragalysis-2/maxwin/BulkDock/SCRATCH/511017/C20922-P106/C20922-P106.minimised.mol

>  <scratch_subdir>  (259) 
/opt/xchem-fragalysis-2/maxwin/BulkDock/SCRATCH/511017/C20922-P106

>  <fragmenstein_runtime>  (259) 
15.946991443634033

>  <fragmenstein_outcome>  (259) 
too moved

>  <fragmenstein_mode>  (259) 
expansion

>  <fragmenstein_error>  (259) 


$$$$
C20922-P99
     RDKit          3D

 43 46  0  0  0  0  0  0  0  0999 V2000
   -6.7916   -5.4702    9.3117 O   0  0  0  0  0  0  0  0  0  0  0  0
   -7.6810   -4.8997    9.9099 C   0  0  0  0  0  0  0  0  0  0  0  0
   -8.6587   -3.9718    8.7874 C   0  0  0  0  0  0  0  0  0  0  0  0
   -7.8247   -3.1654    7.8389 N   0  0  0  0  0  0  0  0  0  0  0  0
   -7.5410   -3.8049    6.5616 C   0  0  0  0  0  0  0  0  0  0  0  0
   -6.8414   -2.6838    5.8065 C   0  0  0  0  0  0  0  0  0  0  0  0
   -7.4459   -1.4024    6.3730 C   0  0  0  0  0  0  0  0  0  0  0  0
   -8.3801   -1.8655    7.4861 C   0  0  0  0  0  0  0  0  0  0  0  0
   -7.9395   -4.8471   11.7052 N   0  0  0  0  0  0  0  0  0  0  0  0
   -6.9976   -5.4555   12.9557 C   0  0  0  0  0  0  0  0  0  0  0  0
   -7.5121   -5.0843   14.2278 C   0  0  0  0  0  0  0  0  0  0  0  0
   -6.6240   -4.8415   15.2194 C   0  0  0  0  0  0  0  0  0  0  0  0
   -5.2916   -4.7608   14.8299 C   0  0  0  0  0  0  0  0  0  0  0  0
   -4.7135   -4.9964   13.4542 C   0  0  0  0  0  0  0  0  0  0  0  0
   -2.7702   -4.7886   13.0555 C   0  0  0  0  0  0  0  0  0  0  0  0
   -1.4941   -5.6876   13.1823 C   0  0  0  0  0  0  0  0  0  0  0  0
   -0.6139   -5.0994   14.0623 N   0  0  0  0  0  0  0  0  0  0  0  0
    1.1107   -4.9473   13.9842 C   0  0  0  0  0  0  0  0  0  0  0  0
    1.7126   -3.7266   14.0425 C   0  0  0  0  0  0  0  0  0  0  0  0
    0.3877   -2.5419   14.3066 C   0  0  0  0  0  0  0  0  0  0  0  0
   -0.8324   -2.7065   14.5727 N   0  0  0  0  0  0  0  0  0  0  0  0
   -1.3666   -3.8330   14.0577 C   0  0  0  0  0  0  0  0  0  0  0  0
   -2.1624   -3.6743   13.0648 N   0  0  0  0  0  0  0  0  0  0  0  0
   -5.6217   -5.6628   12.6401 C   0  0  0  0  0  0  0  0  0  0  0  0
   -9.1960   -4.6754    8.1819 H   0  0  0  0  0  0  0  0  0  0  0  0
   -9.3019   -3.2600    9.2644 H   0  0  0  0  0  0  0  0  0  0  0  0
   -8.4644   -4.0904    6.0425 H   0  0  0  0  0  0  0  0  0  0  0  0
   -6.9050   -4.6832    6.6413 H   0  0  0  0  0  0  0  0  0  0  0  0
   -6.9940   -2.7659    4.7259 H   0  0  0  0  0  0  0  0  0  0  0  0
   -5.7617   -2.7021    5.9984 H   0  0  0  0  0  0  0  0  0  0  0  0
   -6.6518   -0.7577    6.7673 H   0  0  0  0  0  0  0  0  0  0  0  0
   -7.9900   -0.8395    5.6077 H   0  0  0  0  0  0  0  0  0  0  0  0
   -8.3729   -1.1624    8.3242 H   0  0  0  0  0  0  0  0  0  0  0  0
   -9.4070   -1.9542    7.1100 H   0  0  0  0  0  0  0  0  0  0  0  0
   -8.8123   -4.3707   11.9148 H   0  0  0  0  0  0  0  0  0  0  0  0
   -8.5699   -4.8960   14.3770 H   0  0  0  0  0  0  0  0  0  0  0  0
   -6.9280   -4.5787   16.2257 H   0  0  0  0  0  0  0  0  0  0  0  0
   -4.6668   -4.4981   15.6809 H   0  0  0  0  0  0  0  0  0  0  0  0
   -1.1996   -6.6921   12.9468 H   0  0  0  0  0  0  0  0  0  0  0  0
    1.4697   -5.1933   12.9584 H   0  0  0  0  0  0  0  0  0  0  0  0
    2.5661   -3.4560   13.4279 H   0  0  0  0  0  0  0  0  0  0  0  0
    0.6157   -1.5016   13.9040 H   0  0  0  0  0  0  0  0  0  0  0  0
   -5.3318   -6.0313   11.6697 H   0  0  0  0  0  0  0  0  0  0  0  0
  1  2  2  0
  2  3  1  0
  3  4  1  0
  4  5  1  0
  5  6  1  0
  6  7  1  0
  7  8  1  0
  2  9  1  0
  9 10  1  0
 10 11  2  0
 11 12  1  0
 12 13  2  0
 13 14  1  0
 14 15  1  0
 15 16  2  0
 16 17  1  0
 17 18  1  0
 18 19  2  0
 19 20  1  0
 20 21  2  0
 21 22  1  0
 22 23  2  0
 14 24  2  0
  8  4  1  0
 24 10  1  0
 23 15  1  0
 22 17  1  0
  3 25  1  0
  3 26  1  0
  5 27  1  0
  5 28  1  0
  6 29  1  0
  6 30  1  0
  7 31  1  0
  7 32  1  0
  8 33  1  0
  8 34  1  0
  9 35  1  0
 11 36  1  0
 12 37  1  0
 13 38  1  0
 16 39  1  0
 18 40  1  0
 19 41  1  0
 20 42  1  0
 24 43  1  0
M  END
>  <Energy>  (260) 
482.02047861819364

>  <compound_id>  (260) 
20922

>  <target_id>  (260) 
1

>  <reference_id>  (260) 
99

>  <inspiration_ids>  (260) 
[106, 99]

>  <energy_score>  (260) 
382.0658527035597

>  <distance_score>  (260) 
10.388329441082227

>  <path>  (260) 
/opt/xchem-fragalysis-2/maxwin/BulkDock/SCRATCH/511017/C20922-P99/C20922-P99.minimised.mol

>  <scratch_subdir>  (260) 
/opt/xchem-fragalysis-2/maxwin/BulkDock/SCRATCH/511017/C20922-P99

>  <fragmenstein_runtime>  (260) 
17.46588659286499

>  <fragmenstein_outcome>  (260) 
too moved

>  <fragmenstein_mode>  (260) 
expansion

>  <fragmenstein_error>  (260) 


$$$$
C20928-P106
     RDKit          3D

 42 45  0  0  0  0  0  0  0  0999 V2000
    1.1659   -1.0609   11.1075 O   0  0  0  0  0  0  0  0  0  0  0  0
    1.5353   -1.9175   10.4196 C   0  0  0  0  0  0  0  0  0  0  0  0
    0.5224   -2.3454    8.9319 N   0  0  0  0  0  0  0  0  0  0  0  0
   -1.3554   -1.6523    8.2840 C   0  0  0  0  0  0  0  0  0  0  0  0
   -3.1417   -2.1216    7.9039 C   0  0  0  0  0  0  0  0  0  0  0  0
   -3.6933   -3.3862    7.5594 C   0  0  0  0  0  0  0  0  0  0  0  0
   -5.0415   -3.5847    6.9645 C   0  0  0  0  0  0  0  0  0  0  0  0
   -5.9684   -2.6671    6.7341 C   0  0  0  0  0  0  0  0  0  0  0  0
   -5.5227   -1.4944    6.9263 N   0  0  0  0  0  0  0  0  0  0  0  0
   -4.2457   -1.1904    7.4213 C   0  0  0  0  0  0  0  0  0  0  0  0
   -4.4216    0.1739    7.6169 N   0  0  0  0  0  0  0  0  0  0  0  0
   -5.8431    0.6271    7.7810 C   0  0  0  0  0  0  0  0  0  0  0  0
   -6.2038   -0.0731    9.0882 C   0  0  0  0  0  0  0  0  0  0  0  0
   -4.7497   -0.3664    9.6413 C   0  0  0  0  0  0  0  0  0  0  0  0
   -3.8034    0.4372    8.8435 C   0  0  0  0  0  0  0  0  0  0  0  0
    3.0935   -2.7842   11.2399 C   0  0  0  0  0  0  0  0  0  0  0  0
    3.3568   -4.1235   11.1120 C   0  0  0  0  0  0  0  0  0  0  0  0
    4.5803   -4.4128   11.5898 N   0  0  0  0  0  0  0  0  0  0  0  0
    4.9857   -3.2941   12.1903 C   0  0  0  0  0  0  0  0  0  0  0  0
    6.2284   -2.2352   12.2771 N   0  0  0  0  0  0  0  0  0  0  0  0
    6.7633   -1.8174   13.3423 C   0  0  0  0  0  0  0  0  0  0  0  0
    6.2659   -2.3941   14.5082 C   0  0  0  0  0  0  0  0  0  0  0  0
    4.9948   -2.8772   14.3746 C   0  0  0  0  0  0  0  0  0  0  0  0
    3.8358   -3.1248   12.9179 N   0  0  0  0  0  0  0  0  0  0  0  0
    1.0339   -3.0665    8.3798 H   0  0  0  0  0  0  0  0  0  0  0  0
   -1.1861   -1.4076    7.2543 H   0  0  0  0  0  0  0  0  0  0  0  0
   -1.5905   -0.8969    9.0084 H   0  0  0  0  0  0  0  0  0  0  0  0
   -3.1708   -4.3182    7.6109 H   0  0  0  0  0  0  0  0  0  0  0  0
   -5.4976   -4.4829    6.6296 H   0  0  0  0  0  0  0  0  0  0  0  0
   -6.9599   -2.8226    6.3437 H   0  0  0  0  0  0  0  0  0  0  0  0
   -6.5223    0.4333    6.9414 H   0  0  0  0  0  0  0  0  0  0  0  0
   -5.8581    1.7174    7.8966 H   0  0  0  0  0  0  0  0  0  0  0  0
   -6.7481   -1.0092    8.9314 H   0  0  0  0  0  0  0  0  0  0  0  0
   -6.8834    0.5315    9.6875 H   0  0  0  0  0  0  0  0  0  0  0  0
   -4.4653   -0.3663   10.6883 H   0  0  0  0  0  0  0  0  0  0  0  0
   -4.5786   -1.4005    9.4566 H   0  0  0  0  0  0  0  0  0  0  0  0
   -3.7301    1.5084    8.9585 H   0  0  0  0  0  0  0  0  0  0  0  0
   -2.7769    0.1982    8.9173 H   0  0  0  0  0  0  0  0  0  0  0  0
    2.7814   -4.7556   10.5187 H   0  0  0  0  0  0  0  0  0  0  0  0
    7.5713   -1.0876   13.3956 H   0  0  0  0  0  0  0  0  0  0  0  0
    6.9607   -2.4337   15.3177 H   0  0  0  0  0  0  0  0  0  0  0  0
    4.7660   -3.4813   15.2616 H   0  0  0  0  0  0  0  0  0  0  0  0
  1  2  2  0
  2  3  1  0
  3  4  1  0
  4  5  1  0
  5  6  2  0
  6  7  1  0
  7  8  2  0
  8  9  1  0
  9 10  2  0
 10 11  1  0
 11 12  1  0
 12 13  1  0
 13 14  1  0
 14 15  1  0
  2 16  1  0
 16 17  2  0
 17 18  1  0
 18 19  2  0
 19 20  1  0
 20 21  2  0
 21 22  1  0
 22 23  2  0
 23 24  1  0
 10  5  1  0
 15 11  1  0
 24 16  1  0
 24 19  1  0
  3 25  1  0
  4 26  1  0
  4 27  1  0
  6 28  1  0
  7 29  1  0
  8 30  1  0
 12 31  1  0
 12 32  1  0
 13 33  1  0
 13 34  1  0
 14 35  1  0
 14 36  1  0
 15 37  1  0
 15 38  1  0
 17 39  1  0
 21 40  1  0
 22 41  1  0
 23 42  1  0
M  END
>  <Energy>  (261) 
777.06757211816353

>  <compound_id>  (261) 
20928

>  <target_id>  (261) 
1

>  <reference_id>  (261) 
106

>  <inspiration_ids>  (261) 
[106, 99]

>  <energy_score>  (261) 
763.4194540590538

>  <distance_score>  (261) 
7.184567689791979

>  <path>  (261) 
/opt/xchem-fragalysis-2/maxwin/BulkDock/SCRATCH/511017/C20928-P106/C20928-P106.minimised.mol

>  <scratch_subdir>  (261) 
/opt/xchem-fragalysis-2/maxwin/BulkDock/SCRATCH/511017/C20928-P106

>  <fragmenstein_runtime>  (261) 
10.884488344192505

>  <fragmenstein_outcome>  (261) 
too moved

>  <fragmenstein_mode>  (261) 
expansion

>  <fragmenstein_error>  (261) 


$$$$
C20928-P99
     RDKit          3D

 42 45  0  0  0  0  0  0  0  0999 V2000
    1.0780   -1.0956   12.0116 O   0  0  0  0  0  0  0  0  0  0  0  0
    1.5866   -1.4915   10.9653 C   0  0  0  0  0  0  0  0  0  0  0  0
    0.5173   -1.5787    9.3264 N   0  0  0  0  0  0  0  0  0  0  0  0
   -1.4993   -1.2524    8.9069 C   0  0  0  0  0  0  0  0  0  0  0  0
   -3.1167   -1.8229    8.2595 C   0  0  0  0  0  0  0  0  0  0  0  0
   -3.5051   -2.9707    7.5482 C   0  0  0  0  0  0  0  0  0  0  0  0
   -4.8428   -3.1338    7.0722 C   0  0  0  0  0  0  0  0  0  0  0  0
   -5.8388   -2.3182    7.5290 C   0  0  0  0  0  0  0  0  0  0  0  0
   -5.5241   -1.2831    8.2898 N   0  0  0  0  0  0  0  0  0  0  0  0
   -4.2246   -0.8767    8.2143 C   0  0  0  0  0  0  0  0  0  0  0  0
   -4.2042    0.1674    7.2193 N   0  0  0  0  0  0  0  0  0  0  0  0
   -5.2926    1.1649    7.5014 C   0  0  0  0  0  0  0  0  0  0  0  0
   -6.0889    1.3580    6.2131 C   0  0  0  0  0  0  0  0  0  0  0  0
   -5.8956    0.0791    5.4400 C   0  0  0  0  0  0  0  0  0  0  0  0
   -4.4868   -0.3613    5.8163 C   0  0  0  0  0  0  0  0  0  0  0  0
    3.5032   -2.1207   11.2005 C   0  0  0  0  0  0  0  0  0  0  0  0
    4.3537   -2.8783   11.9305 C   0  0  0  0  0  0  0  0  0  0  0  0
    5.3739   -1.2084   12.0535 N   0  0  0  0  0  0  0  0  0  0  0  0
    6.5651   -1.4202   11.7131 C   0  0  0  0  0  0  0  0  0  0  0  0
    7.3634   -0.5466   12.3492 N   0  0  0  0  0  0  0  0  0  0  0  0
    7.6341   -0.8086   13.5777 C   0  0  0  0  0  0  0  0  0  0  0  0
    7.0154   -1.8322   14.3610 C   0  0  0  0  0  0  0  0  0  0  0  0
    5.8537   -2.3474   13.9037 C   0  0  0  0  0  0  0  0  0  0  0  0
    5.2438   -2.3685   12.1651 N   0  0  0  0  0  0  0  0  0  0  0  0
    1.1196   -1.8418    8.5494 H   0  0  0  0  0  0  0  0  0  0  0  0
   -1.8140   -0.2464    8.5237 H   0  0  0  0  0  0  0  0  0  0  0  0
   -1.4475   -1.3934    7.8111 H   0  0  0  0  0  0  0  0  0  0  0  0
   -2.8791   -3.8057    7.3063 H   0  0  0  0  0  0  0  0  0  0  0  0
   -5.1557   -3.9099    6.4088 H   0  0  0  0  0  0  0  0  0  0  0  0
   -6.8887   -2.4881    7.3237 H   0  0  0  0  0  0  0  0  0  0  0  0
   -4.8398    2.1243    7.7596 H   0  0  0  0  0  0  0  0  0  0  0  0
   -5.9728    0.9103    8.3217 H   0  0  0  0  0  0  0  0  0  0  0  0
   -5.7011    2.2070    5.6393 H   0  0  0  0  0  0  0  0  0  0  0  0
   -7.1444    1.5667    6.4143 H   0  0  0  0  0  0  0  0  0  0  0  0
   -6.6510   -0.6544    5.7304 H   0  0  0  0  0  0  0  0  0  0  0  0
   -5.9994    0.2319    4.3610 H   0  0  0  0  0  0  0  0  0  0  0  0
   -3.8067    0.0424    5.0657 H   0  0  0  0  0  0  0  0  0  0  0  0
   -4.3259   -1.4192    5.6409 H   0  0  0  0  0  0  0  0  0  0  0  0
    4.5849   -3.9612   11.6090 H   0  0  0  0  0  0  0  0  0  0  0  0
    8.3493   -0.1629   14.1196 H   0  0  0  0  0  0  0  0  0  0  0  0
    7.4012   -1.8381   15.3551 H   0  0  0  0  0  0  0  0  0  0  0  0
    5.1401   -2.6737   14.6472 H   0  0  0  0  0  0  0  0  0  0  0  0
  1  2  2  0
  2  3  1  0
  3  4  1  0
  4  5  1  0
  5  6  2  0
  6  7  1  0
  7  8  2  0
  8  9  1  0
  9 10  2  0
 10 11  1  0
 11 12  1  0
 12 13  1  0
 13 14  1  0
 14 15  1  0
  2 16  1  0
 16 17  2  0
 17 18  1  0
 18 19  2  0
 19 20  1  0
 20 21  2  0
 21 22  1  0
 22 23  2  0
 23 24  1  0
 10  5  1  0
 15 11  1  0
 24 16  1  0
 24 19  1  0
  3 25  1  0
  4 26  1  0
  4 27  1  0
  6 28  1  0
  7 29  1  0
  8 30  1  0
 12 31  1  0
 12 32  1  0
 13 33  1  0
 13 34  1  0
 14 35  1  0
 14 36  1  0
 15 37  1  0
 15 38  1  0
 17 39  1  0
 21 40  1  0
 22 41  1  0
 23 42  1  0
M  END
>  <Energy>  (262) 
1262.0761258990408

>  <compound_id>  (262) 
20928

>  <target_id>  (262) 
1

>  <reference_id>  (262) 
99

>  <inspiration_ids>  (262) 
[106, 99]

>  <energy_score>  (262) 
1248.428007839956

>  <distance_score>  (262) 
6.622331199054234

>  <path>  (262) 
/opt/xchem-fragalysis-2/maxwin/BulkDock/SCRATCH/511017/C20928-P99/C20928-P99.minimised.mol

>  <scratch_subdir>  (262) 
/opt/xchem-fragalysis-2/maxwin/BulkDock/SCRATCH/511017/C20928-P99

>  <fragmenstein_runtime>  (262) 
12.7557053565979

>  <fragmenstein_outcome>  (262) 
too moved

>  <fragmenstein_mode>  (262) 
expansion

>  <fragmenstein_error>  (262) 


$$$$
C20929-P106
     RDKit          3D

 49 51  0  0  0  0  0  0  0  0999 V2000
   -1.9830   -0.7762   12.5055 C   0  0  0  0  0  0  0  0  0  0  0  0
   -0.7276   -0.5371   11.9135 C   0  0  0  0  0  0  0  0  0  0  0  0
   -0.0419   -1.4365   10.4671 N   0  0  0  0  0  0  0  0  0  0  0  0
   -1.6795   -0.6318    9.5061 C   0  0  0  0  0  0  0  0  0  0  0  0
   -3.4251   -0.3463    9.2689 C   0  0  0  0  0  0  0  0  0  0  0  0
   -4.3763   -1.0625    8.3388 N   0  0  0  0  0  0  0  0  0  0  0  0
   -5.2923   -0.9383    7.7723 C   0  0  0  0  0  0  0  0  0  0  0  0
   -5.6221    0.6263    7.9827 O   0  0  0  0  0  0  0  0  0  0  0  0
   -6.2889   -1.6591    7.0022 C   0  0  0  0  0  0  0  0  0  0  0  0
   -6.1283   -3.0704    6.5655 C   0  0  0  0  0  0  0  0  0  0  0  0
   -6.9327   -3.7570    5.8155 N   0  0  0  0  0  0  0  0  0  0  0  0
   -8.0569   -3.1050    5.3978 C   0  0  0  0  0  0  0  0  0  0  0  0
   -8.9861   -3.5012    4.5542 N   0  0  0  0  0  0  0  0  0  0  0  0
   -9.9219   -2.5013    4.5228 C   0  0  0  0  0  0  0  0  0  0  0  0
   -9.5356   -1.4413    5.3073 C   0  0  0  0  0  0  0  0  0  0  0  0
   -8.3302   -1.8131    5.8375 N   0  0  0  0  0  0  0  0  0  0  0  0
   -7.4489   -1.0945    6.6298 C   0  0  0  0  0  0  0  0  0  0  0  0
    1.3613   -1.1804   10.3578 C   0  0  0  0  0  0  0  0  0  0  0  0
    1.8340   -0.3035    9.7192 O   0  0  0  0  0  0  0  0  0  0  0  0
    2.7763   -2.4988   11.1442 C   0  0  0  0  0  0  0  0  0  0  0  0
    3.0576   -3.6744   12.3960 N   0  0  0  0  0  0  0  0  0  0  0  0
    4.5257   -4.0324   12.4750 C   0  0  0  0  0  0  0  0  0  0  0  0
    4.5943   -5.1048   13.5356 C   0  0  0  0  0  0  0  0  0  0  0  0
    3.3622   -5.9122   13.2122 C   0  0  0  0  0  0  0  0  0  0  0  0
    2.5419   -5.0448   12.2329 C   0  0  0  0  0  0  0  0  0  0  0  0
   -3.0696   -0.6241   12.3988 H   0  0  0  0  0  0  0  0  0  0  0  0
   -1.8338   -1.8089   12.8458 H   0  0  0  0  0  0  0  0  0  0  0  0
   -2.2992    0.1827   12.9413 H   0  0  0  0  0  0  0  0  0  0  0  0
    0.1571   -0.5806   12.5857 H   0  0  0  0  0  0  0  0  0  0  0  0
   -0.9675    0.4779   12.0484 H   0  0  0  0  0  0  0  0  0  0  0  0
   -1.5685    0.1456    8.7832 H   0  0  0  0  0  0  0  0  0  0  0  0
   -1.7169   -1.4023    8.6996 H   0  0  0  0  0  0  0  0  0  0  0  0
   -3.4398    0.6850    8.8979 H   0  0  0  0  0  0  0  0  0  0  0  0
   -4.0335   -0.2499   10.1609 H   0  0  0  0  0  0  0  0  0  0  0  0
   -3.5768   -1.5584    8.6555 H   0  0  0  0  0  0  0  0  0  0  0  0
   -5.1967   -3.5491    6.9017 H   0  0  0  0  0  0  0  0  0  0  0  0
  -10.8228   -2.5993    3.9307 H   0  0  0  0  0  0  0  0  0  0  0  0
   -9.9959   -0.4878    5.5177 H   0  0  0  0  0  0  0  0  0  0  0  0
   -7.7311   -0.0797    6.8837 H   0  0  0  0  0  0  0  0  0  0  0  0
    2.9715   -3.1957   10.3160 H   0  0  0  0  0  0  0  0  0  0  0  0
    3.6862   -2.0248   11.4474 H   0  0  0  0  0  0  0  0  0  0  0  0
    4.8599   -4.4891   11.5386 H   0  0  0  0  0  0  0  0  0  0  0  0
    5.2363   -3.2598   12.7390 H   0  0  0  0  0  0  0  0  0  0  0  0
    5.5093   -5.7011   13.4707 H   0  0  0  0  0  0  0  0  0  0  0  0
    4.5301   -4.6820   14.5431 H   0  0  0  0  0  0  0  0  0  0  0  0
    2.7973   -6.1233   14.1273 H   0  0  0  0  0  0  0  0  0  0  0  0
    3.6189   -6.8699   12.7466 H   0  0  0  0  0  0  0  0  0  0  0  0
    1.5055   -5.1834   12.5293 H   0  0  0  0  0  0  0  0  0  0  0  0
    2.6775   -5.4096   11.2074 H   0  0  0  0  0  0  0  0  0  0  0  0
  1  2  1  0
  2  3  1  0
  3  4  1  0
  4  5  1  0
  5  6  1  0
  6  7  1  0
  7  8  2  0
  7  9  1  0
  9 10  1  0
 10 11  2  0
 11 12  1  0
 12 13  2  0
 13 14  1  0
 14 15  2  0
 15 16  1  0
 16 17  1  0
  3 18  1  0
 18 19  2  0
 18 20  1  0
 20 21  1  0
 21 22  1  0
 22 23  1  0
 23 24  1  0
 24 25  1  0
 17  9  2  0
 25 21  1  0
 16 12  1  0
  1 26  1  0
  1 27  1  0
  1 28  1  0
  2 29  1  0
  2 30  1  0
  4 31  1  0
  4 32  1  0
  5 33  1  0
  5 34  1  0
  6 35  1  0
 10 36  1  0
 14 37  1  0
 15 38  1  0
 17 39  1  0
 20 40  1  0
 20 41  1  0
 22 42  1  0
 22 43  1  0
 23 44  1  0
 23 45  1  0
 24 46  1  0
 24 47  1  0
 25 48  1  0
 25 49  1  0
M  END
>  <Energy>  (263) 
752.74342038599491

>  <compound_id>  (263) 
20929

>  <target_id>  (263) 
1

>  <reference_id>  (263) 
106

>  <inspiration_ids>  (263) 
[106, 99]

>  <energy_score>  (263) 
665.6198191812707

>  <distance_score>  (263) 
8.15674339661955

>  <path>  (263) 
/opt/xchem-fragalysis-2/maxwin/BulkDock/SCRATCH/511017/C20929-P106/C20929-P106.minimised.mol

>  <scratch_subdir>  (263) 
/opt/xchem-fragalysis-2/maxwin/BulkDock/SCRATCH/511017/C20929-P106

>  <fragmenstein_runtime>  (263) 
17.426924467086792

>  <fragmenstein_outcome>  (263) 
too moved

>  <fragmenstein_mode>  (263) 
expansion

>  <fragmenstein_error>  (263) 


$$$$
C20929-P99
     RDKit          3D

 49 51  0  0  0  0  0  0  0  0999 V2000
   -2.7833    0.0022    9.7849 C   0  0  0  0  0  0  0  0  0  0  0  0
   -1.1343   -0.7899   11.0164 C   0  0  0  0  0  0  0  0  0  0  0  0
    0.3605   -1.0405    9.6848 N   0  0  0  0  0  0  0  0  0  0  0  0
   -1.3515   -1.2419    8.6218 C   0  0  0  0  0  0  0  0  0  0  0  0
   -2.0522   -0.8845    7.2242 C   0  0  0  0  0  0  0  0  0  0  0  0
   -3.3511   -1.4707    6.8696 N   0  0  0  0  0  0  0  0  0  0  0  0
   -4.0565   -1.4988    5.6296 C   0  0  0  0  0  0  0  0  0  0  0  0
   -3.7373   -1.1212    4.5404 O   0  0  0  0  0  0  0  0  0  0  0  0
   -5.4097   -2.1268    5.7126 C   0  0  0  0  0  0  0  0  0  0  0  0
   -5.9206   -2.8883    4.5229 C   0  0  0  0  0  0  0  0  0  0  0  0
   -7.1163   -3.3535    4.3375 N   0  0  0  0  0  0  0  0  0  0  0  0
   -8.0057   -3.0991    5.3368 C   0  0  0  0  0  0  0  0  0  0  0  0
   -9.2900   -3.3689    5.3796 N   0  0  0  0  0  0  0  0  0  0  0  0
   -9.7435   -2.8759    6.5727 C   0  0  0  0  0  0  0  0  0  0  0  0
   -8.7205   -2.2968    7.2855 C   0  0  0  0  0  0  0  0  0  0  0  0
   -7.6148   -2.4232    6.4907 N   0  0  0  0  0  0  0  0  0  0  0  0
   -6.3262   -1.9329    6.6770 C   0  0  0  0  0  0  0  0  0  0  0  0
    1.8640    0.3236    9.5185 C   0  0  0  0  0  0  0  0  0  0  0  0
    1.8611    1.3345    8.7325 O   0  0  0  0  0  0  0  0  0  0  0  0
    3.6218    0.3818   10.7963 C   0  0  0  0  0  0  0  0  0  0  0  0
    5.1591   -0.6048   11.7744 N   0  0  0  0  0  0  0  0  0  0  0  0
    6.6668   -0.6602   12.1113 C   0  0  0  0  0  0  0  0  0  0  0  0
    6.9167   -1.5899   13.4285 C   0  0  0  0  0  0  0  0  0  0  0  0
    6.0246   -2.7825   13.4083 C   0  0  0  0  0  0  0  0  0  0  0  0
    5.2911   -2.5236   12.0961 C   0  0  0  0  0  0  0  0  0  0  0  0
   -3.7219    0.2365   10.3256 H   0  0  0  0  0  0  0  0  0  0  0  0
   -3.4237   -0.7034    9.1670 H   0  0  0  0  0  0  0  0  0  0  0  0
   -2.6698    0.7217    8.9492 H   0  0  0  0  0  0  0  0  0  0  0  0
   -1.2547   -1.7019   11.4416 H   0  0  0  0  0  0  0  0  0  0  0  0
   -0.9320   -0.2519   11.9344 H   0  0  0  0  0  0  0  0  0  0  0  0
   -2.0834   -1.5842    9.2782 H   0  0  0  0  0  0  0  0  0  0  0  0
   -1.7535   -2.2143    8.4517 H   0  0  0  0  0  0  0  0  0  0  0  0
   -2.2568    0.1634    7.1784 H   0  0  0  0  0  0  0  0  0  0  0  0
   -1.4391   -1.2854    6.4310 H   0  0  0  0  0  0  0  0  0  0  0  0
   -3.9626   -1.8021    7.6036 H   0  0  0  0  0  0  0  0  0  0  0  0
   -5.1775   -3.0619    3.7266 H   0  0  0  0  0  0  0  0  0  0  0  0
  -10.7869   -2.9608    6.8512 H   0  0  0  0  0  0  0  0  0  0  0  0
   -8.7065   -1.8069    8.2469 H   0  0  0  0  0  0  0  0  0  0  0  0
   -6.1582   -1.3447    7.5687 H   0  0  0  0  0  0  0  0  0  0  0  0
    3.3217    1.1987   11.4878 H   0  0  0  0  0  0  0  0  0  0  0  0
    4.2128    0.9391   10.0492 H   0  0  0  0  0  0  0  0  0  0  0  0
    7.1466   -1.1173   11.2522 H   0  0  0  0  0  0  0  0  0  0  0  0
    7.3064    0.1776   12.3197 H   0  0  0  0  0  0  0  0  0  0  0  0
    7.9359   -1.9033   13.5750 H   0  0  0  0  0  0  0  0  0  0  0  0
    6.7265   -1.1128   14.3823 H   0  0  0  0  0  0  0  0  0  0  0  0
    5.3713   -2.8106   14.2860 H   0  0  0  0  0  0  0  0  0  0  0  0
    6.5315   -3.7428   13.4392 H   0  0  0  0  0  0  0  0  0  0  0  0
    4.2903   -2.9801   12.0028 H   0  0  0  0  0  0  0  0  0  0  0  0
    6.0021   -3.0095   11.4109 H   0  0  0  0  0  0  0  0  0  0  0  0
  1  2  1  0
  2  3  1  0
  3  4  1  0
  4  5  1  0
  5  6  1  0
  6  7  1  0
  7  8  2  0
  7  9  1  0
  9 10  1  0
 10 11  2  0
 11 12  1  0
 12 13  2  0
 13 14  1  0
 14 15  2  0
 15 16  1  0
 16 17  1  0
  3 18  1  0
 18 19  2  0
 18 20  1  0
 20 21  1  0
 21 22  1  0
 22 23  1  0
 23 24  1  0
 24 25  1  0
 17  9  2  0
 25 21  1  0
 16 12  1  0
  1 26  1  0
  1 27  1  0
  1 28  1  0
  2 29  1  0
  2 30  1  0
  4 31  1  0
  4 32  1  0
  5 33  1  0
  5 34  1  0
  6 35  1  0
 10 36  1  0
 14 37  1  0
 15 38  1  0
 17 39  1  0
 20 40  1  0
 20 41  1  0
 22 42  1  0
 22 43  1  0
 23 44  1  0
 23 45  1  0
 24 46  1  0
 24 47  1  0
 25 48  1  0
 25 49  1  0
M  END
>  <Energy>  (264) 
1121.1580260281501

>  <compound_id>  (264) 
20929

>  <target_id>  (264) 
1

>  <reference_id>  (264) 
99

>  <inspiration_ids>  (264) 
[106, 99]

>  <energy_score>  (264) 
1034.03442482344

>  <distance_score>  (264) 
6.2997601289715845

>  <path>  (264) 
/opt/xchem-fragalysis-2/maxwin/BulkDock/SCRATCH/511017/C20929-P99/C20929-P99.minimised.mol

>  <scratch_subdir>  (264) 
/opt/xchem-fragalysis-2/maxwin/BulkDock/SCRATCH/511017/C20929-P99

>  <fragmenstein_runtime>  (264) 
20.033934116363525

>  <fragmenstein_outcome>  (264) 
too moved

>  <fragmenstein_mode>  (264) 
expansion

>  <fragmenstein_error>  (264) 


$$$$
C20932-P106
     RDKit          3D

 49 51  0  0  0  0  0  0  0  0999 V2000
   -3.8722   -1.8585    7.7365 C   0  0  0  0  0  0  0  0  0  0  0  0
   -4.0695   -0.8663    8.7299 N   0  0  0  0  0  0  0  0  0  0  0  0
   -2.4951   -0.7274    8.5776 C   0  0  0  0  0  0  0  0  0  0  0  0
   -0.9029   -1.7957    8.5967 C   0  0  0  0  0  0  0  0  0  0  0  0
    1.1253   -1.6154    9.5139 N   0  0  0  0  0  0  0  0  0  0  0  0
    1.5867   -1.6381    7.7563 C   0  0  0  0  0  0  0  0  0  0  0  0
    2.3643   -2.8450   10.5495 C   0  0  0  0  0  0  0  0  0  0  0  0
    2.2567   -4.0612   10.8143 O   0  0  0  0  0  0  0  0  0  0  0  0
    3.7552   -2.2420   11.3996 C   0  0  0  0  0  0  0  0  0  0  0  0
    4.5014   -3.1974   12.2003 C   0  0  0  0  0  0  0  0  0  0  0  0
    5.8865   -2.4910   12.8281 N   0  0  0  0  0  0  0  0  0  0  0  0
    6.4241   -2.6015   14.1757 C   0  0  0  0  0  0  0  0  0  0  0  0
    7.5118   -1.9686   14.5993 C   0  0  0  0  0  0  0  0  0  0  0  0
    7.9650   -1.0004   13.6210 C   0  0  0  0  0  0  0  0  0  0  0  0
    7.3526   -0.6684   12.5149 N   0  0  0  0  0  0  0  0  0  0  0  0
    6.1435   -1.2272   12.1980 C   0  0  0  0  0  0  0  0  0  0  0  0
    4.8677   -0.8227   11.4931 N   0  0  0  0  0  0  0  0  0  0  0  0
   -5.1485    0.0393    8.3304 C   0  0  0  0  0  0  0  0  0  0  0  0
   -5.1128    1.0761    7.7060 O   0  0  0  0  0  0  0  0  0  0  0  0
   -6.5608   -0.4809    8.6837 C   0  0  0  0  0  0  0  0  0  0  0  0
   -7.5120   -0.6012    7.5711 N   0  0  0  0  0  0  0  0  0  0  0  0
   -7.3306   -1.7266    6.6757 C   0  0  0  0  0  0  0  0  0  0  0  0
   -8.3375   -1.4618    5.5684 C   0  0  0  0  0  0  0  0  0  0  0  0
   -8.6920    0.0158    5.6926 C   0  0  0  0  0  0  0  0  0  0  0  0
   -7.7284    0.5644    6.7312 C   0  0  0  0  0  0  0  0  0  0  0  0
   -4.8221   -2.3623    7.5367 H   0  0  0  0  0  0  0  0  0  0  0  0
   -3.1895   -2.6736    7.9825 H   0  0  0  0  0  0  0  0  0  0  0  0
   -3.7004   -1.2790    6.8525 H   0  0  0  0  0  0  0  0  0  0  0  0
   -2.3765    0.1948    9.1473 H   0  0  0  0  0  0  0  0  0  0  0  0
   -2.3730   -0.2708    7.6253 H   0  0  0  0  0  0  0  0  0  0  0  0
   -1.1382   -0.9737    9.3790 H   0  0  0  0  0  0  0  0  0  0  0  0
   -1.0054   -1.5040    7.4487 H   0  0  0  0  0  0  0  0  0  0  0  0
    1.5836   -2.7041    7.9917 H   0  0  0  0  0  0  0  0  0  0  0  0
    2.0346   -0.6765    7.8290 H   0  0  0  0  0  0  0  0  0  0  0  0
    2.5285   -1.8940    7.2850 H   0  0  0  0  0  0  0  0  0  0  0  0
    4.4393   -4.2708   12.0959 H   0  0  0  0  0  0  0  0  0  0  0  0
    5.8421   -3.1718   14.8649 H   0  0  0  0  0  0  0  0  0  0  0  0
    7.9450   -1.9708   15.5725 H   0  0  0  0  0  0  0  0  0  0  0  0
    8.8401   -0.3923   13.9438 H   0  0  0  0  0  0  0  0  0  0  0  0
   -6.5019   -1.4490    9.1437 H   0  0  0  0  0  0  0  0  0  0  0  0
   -6.9887    0.1958    9.4288 H   0  0  0  0  0  0  0  0  0  0  0  0
   -6.3338   -1.7368    6.2384 H   0  0  0  0  0  0  0  0  0  0  0  0
   -7.5146   -2.6891    7.1628 H   0  0  0  0  0  0  0  0  0  0  0  0
   -9.2371   -2.0752    5.6932 H   0  0  0  0  0  0  0  0  0  0  0  0
   -7.9107   -1.6881    4.5854 H   0  0  0  0  0  0  0  0  0  0  0  0
   -8.6059    0.5389    4.7350 H   0  0  0  0  0  0  0  0  0  0  0  0
   -9.7280    0.1184    6.0383 H   0  0  0  0  0  0  0  0  0  0  0  0
   -8.1610    1.4071    7.2784 H   0  0  0  0  0  0  0  0  0  0  0  0
   -6.8268    0.8973    6.2084 H   0  0  0  0  0  0  0  0  0  0  0  0
  1  2  1  0
  2  3  1  0
  3  4  1  0
  4  5  1  0
  5  6  1  0
  5  7  1  0
  7  8  2  0
  7  9  1  0
  9 10  2  0
 10 11  1  0
 11 12  1  0
 12 13  2  0
 13 14  1  0
 14 15  2  0
 15 16  1  0
 16 17  2  0
  2 18  1  0
 18 19  2  0
 18 20  1  0
 20 21  1  0
 21 22  1  0
 22 23  1  0
 23 24  1  0
 24 25  1  0
 17  9  1  0
 25 21  1  0
 16 11  1  0
  1 26  1  0
  1 27  1  0
  1 28  1  0
  3 29  1  0
  3 30  1  0
  4 31  1  0
  4 32  1  0
  6 33  1  0
  6 34  1  0
  6 35  1  0
 10 36  1  0
 12 37  1  0
 13 38  1  0
 14 39  1  0
 20 40  1  0
 20 41  1  0
 22 42  1  0
 22 43  1  0
 23 44  1  0
 23 45  1  0
 24 46  1  0
 24 47  1  0
 25 48  1  0
 25 49  1  0
M  END
>  <Energy>  (265) 
946.62852524871823

>  <compound_id>  (265) 
20932

>  <target_id>  (265) 
1

>  <reference_id>  (265) 
106

>  <inspiration_ids>  (265) 
[106, 99]

>  <energy_score>  (265) 
780.0442112873849

>  <distance_score>  (265) 
6.552082991212602

>  <path>  (265) 
/opt/xchem-fragalysis-2/maxwin/BulkDock/SCRATCH/511017/C20932-P106/C20932-P106.minimised.mol

>  <scratch_subdir>  (265) 
/opt/xchem-fragalysis-2/maxwin/BulkDock/SCRATCH/511017/C20932-P106

>  <fragmenstein_runtime>  (265) 
19.871713876724243

>  <fragmenstein_outcome>  (265) 
too moved

>  <fragmenstein_mode>  (265) 
expansion

>  <fragmenstein_error>  (265) 


$$$$
C20932-P99
     RDKit          3D

 49 51  0  0  0  0  0  0  0  0999 V2000
   -3.4124   -1.1348    8.0781 C   0  0  0  0  0  0  0  0  0  0  0  0
   -4.5663   -0.2167    8.2596 N   0  0  0  0  0  0  0  0  0  0  0  0
   -3.9734   -0.1115    9.6648 C   0  0  0  0  0  0  0  0  0  0  0  0
   -4.0513   -0.1169   11.6275 C   0  0  0  0  0  0  0  0  0  0  0  0
   -2.8499    0.6555   12.9627 N   0  0  0  0  0  0  0  0  0  0  0  0
   -1.8481   -0.7688   12.4178 C   0  0  0  0  0  0  0  0  0  0  0  0
   -3.1245    0.8034   14.8018 C   0  0  0  0  0  0  0  0  0  0  0  0
   -4.0214    0.3699   15.5060 O   0  0  0  0  0  0  0  0  0  0  0  0
   -1.9549    1.8187   15.5579 C   0  0  0  0  0  0  0  0  0  0  0  0
   -1.0176    2.6456   14.9223 C   0  0  0  0  0  0  0  0  0  0  0  0
    0.0988    2.6917   15.7422 N   0  0  0  0  0  0  0  0  0  0  0  0
    1.3353    3.3080   15.5581 C   0  0  0  0  0  0  0  0  0  0  0  0
    2.2822    3.2032   16.5032 C   0  0  0  0  0  0  0  0  0  0  0  0
    1.9205    2.3425   17.6551 C   0  0  0  0  0  0  0  0  0  0  0  0
    0.7793    1.7512   17.8440 N   0  0  0  0  0  0  0  0  0  0  0  0
   -0.1835    1.9473   16.8832 C   0  0  0  0  0  0  0  0  0  0  0  0
   -1.4267    1.4906   16.8269 N   0  0  0  0  0  0  0  0  0  0  0  0
   -5.7772   -0.8398    7.7937 C   0  0  0  0  0  0  0  0  0  0  0  0
   -6.5834   -1.5113    8.3777 O   0  0  0  0  0  0  0  0  0  0  0  0
   -5.9220   -0.5348    6.2911 C   0  0  0  0  0  0  0  0  0  0  0  0
   -7.2241    0.0823    5.9800 N   0  0  0  0  0  0  0  0  0  0  0  0
   -7.4418    1.3465    6.6960 C   0  0  0  0  0  0  0  0  0  0  0  0
   -6.7492    2.4174    5.8685 C   0  0  0  0  0  0  0  0  0  0  0  0
   -6.6017    1.8130    4.4775 C   0  0  0  0  0  0  0  0  0  0  0  0
   -7.2859    0.4557    4.5636 C   0  0  0  0  0  0  0  0  0  0  0  0
   -3.5021   -2.0830    8.6041 H   0  0  0  0  0  0  0  0  0  0  0  0
   -3.4314   -1.4369    7.0205 H   0  0  0  0  0  0  0  0  0  0  0  0
   -2.4370   -0.6537    8.1792 H   0  0  0  0  0  0  0  0  0  0  0  0
   -3.5017    0.8196    9.4338 H   0  0  0  0  0  0  0  0  0  0  0  0
   -5.0430   -0.1665    9.8330 H   0  0  0  0  0  0  0  0  0  0  0  0
   -4.5508   -0.9559   11.8078 H   0  0  0  0  0  0  0  0  0  0  0  0
   -5.0980    0.1341   11.8831 H   0  0  0  0  0  0  0  0  0  0  0  0
   -2.0763   -1.7499   12.7719 H   0  0  0  0  0  0  0  0  0  0  0  0
   -1.3775   -0.7361   11.4424 H   0  0  0  0  0  0  0  0  0  0  0  0
   -0.8269   -0.4093   12.6092 H   0  0  0  0  0  0  0  0  0  0  0  0
   -0.9855    3.0400   13.9172 H   0  0  0  0  0  0  0  0  0  0  0  0
    1.4829    3.8672   14.6428 H   0  0  0  0  0  0  0  0  0  0  0  0
    3.2594    3.6591   16.4462 H   0  0  0  0  0  0  0  0  0  0  0  0
    2.7158    2.2091   18.4069 H   0  0  0  0  0  0  0  0  0  0  0  0
   -5.8359   -1.4975    5.7717 H   0  0  0  0  0  0  0  0  0  0  0  0
   -5.0880    0.0872    5.9506 H   0  0  0  0  0  0  0  0  0  0  0  0
   -8.5207    1.5478    6.7159 H   0  0  0  0  0  0  0  0  0  0  0  0
   -7.1122    1.3500    7.7400 H   0  0  0  0  0  0  0  0  0  0  0  0
   -5.7684    2.6617    6.2859 H   0  0  0  0  0  0  0  0  0  0  0  0
   -7.3378    3.3407    5.8427 H   0  0  0  0  0  0  0  0  0  0  0  0
   -7.0605    2.4469    3.7118 H   0  0  0  0  0  0  0  0  0  0  0  0
   -5.5406    1.7030    4.2265 H   0  0  0  0  0  0  0  0  0  0  0  0
   -6.8379   -0.2843    3.8914 H   0  0  0  0  0  0  0  0  0  0  0  0
   -8.3386    0.5544    4.2702 H   0  0  0  0  0  0  0  0  0  0  0  0
  1  2  1  0
  2  3  1  0
  3  4  1  0
  4  5  1  0
  5  6  1  0
  5  7  1  0
  7  8  2  0
  7  9  1  0
  9 10  2  0
 10 11  1  0
 11 12  1  0
 12 13  2  0
 13 14  1  0
 14 15  2  0
 15 16  1  0
 16 17  2  0
  2 18  1  0
 18 19  2  0
 18 20  1  0
 20 21  1  0
 21 22  1  0
 22 23  1  0
 23 24  1  0
 24 25  1  0
 17  9  1  0
 25 21  1  0
 16 11  1  0
  1 26  1  0
  1 27  1  0
  1 28  1  0
  3 29  1  0
  3 30  1  0
  4 31  1  0
  4 32  1  0
  6 33  1  0
  6 34  1  0
  6 35  1  0
 10 36  1  0
 12 37  1  0
 13 38  1  0
 14 39  1  0
 20 40  1  0
 20 41  1  0
 22 42  1  0
 22 43  1  0
 23 44  1  0
 23 45  1  0
 24 46  1  0
 24 47  1  0
 25 48  1  0
 25 49  1  0
M  END
>  <Energy>  (266) 
561.66836337151665

>  <compound_id>  (266) 
20932

>  <target_id>  (266) 
1

>  <reference_id>  (266) 
99

>  <inspiration_ids>  (266) 
[106, 99]

>  <energy_score>  (266) 
395.08404941018637

>  <distance_score>  (266) 
9.729973869930381

>  <path>  (266) 
/opt/xchem-fragalysis-2/maxwin/BulkDock/SCRATCH/511017/C20932-P99/C20932-P99.minimised.mol

>  <scratch_subdir>  (266) 
/opt/xchem-fragalysis-2/maxwin/BulkDock/SCRATCH/511017/C20932-P99

>  <fragmenstein_runtime>  (266) 
19.968284130096436

>  <fragmenstein_outcome>  (266) 
too moved

>  <fragmenstein_mode>  (266) 
expansion

>  <fragmenstein_error>  (266) 


$$$$
C20933-P106
     RDKit          3D

 49 51  0  0  0  0  0  0  0  0999 V2000
   -2.2095    0.3499    8.8992 C   0  0  0  0  0  0  0  0  0  0  0  0
   -1.2995   -0.9420    9.5805 C   0  0  0  0  0  0  0  0  0  0  0  0
   -2.7972   -1.8139    8.6435 C   0  0  0  0  0  0  0  0  0  0  0  0
   -4.2809   -1.0864    8.4898 C   0  0  0  0  0  0  0  0  0  0  0  0
   -5.5280   -1.5605    7.9336 N   0  0  0  0  0  0  0  0  0  0  0  0
   -5.8077   -2.6351    7.0427 C   0  0  0  0  0  0  0  0  0  0  0  0
   -5.0940   -3.4722    6.5861 O   0  0  0  0  0  0  0  0  0  0  0  0
   -7.2462   -2.5928    6.5915 C   0  0  0  0  0  0  0  0  0  0  0  0
   -8.3864   -1.9397    7.3055 C   0  0  0  0  0  0  0  0  0  0  0  0
   -9.5455   -1.6248    6.8159 N   0  0  0  0  0  0  0  0  0  0  0  0
   -9.7588   -1.9900    5.5218 C   0  0  0  0  0  0  0  0  0  0  0  0
  -10.7572   -1.6773    4.7239 N   0  0  0  0  0  0  0  0  0  0  0  0
  -10.5096   -2.3290    3.5439 C   0  0  0  0  0  0  0  0  0  0  0  0
   -9.3165   -3.0094    3.5933 C   0  0  0  0  0  0  0  0  0  0  0  0
   -8.8254   -2.7728    4.8488 N   0  0  0  0  0  0  0  0  0  0  0  0
   -7.5865   -3.0844    5.3874 C   0  0  0  0  0  0  0  0  0  0  0  0
    0.8150   -1.0657    9.9308 N   0  0  0  0  0  0  0  0  0  0  0  0
    1.9135   -0.8386   11.4819 C   0  0  0  0  0  0  0  0  0  0  0  0
    1.4238   -0.6734   12.6223 O   0  0  0  0  0  0  0  0  0  0  0  0
    4.0547   -0.6206   11.3639 C   0  0  0  0  0  0  0  0  0  0  0  0
    5.7415   -0.9165   12.3333 N   0  0  0  0  0  0  0  0  0  0  0  0
    6.2611   -2.0870   13.4290 C   0  0  0  0  0  0  0  0  0  0  0  0
    7.6375   -1.7992   13.9312 C   0  0  0  0  0  0  0  0  0  0  0  0
    7.9377   -0.6264   12.9858 C   0  0  0  0  0  0  0  0  0  0  0  0
    7.0396   -0.9065   11.7495 C   0  0  0  0  0  0  0  0  0  0  0  0
   -2.0374    1.4060    8.7241 H   0  0  0  0  0  0  0  0  0  0  0  0
   -2.2652    0.0293    7.8833 H   0  0  0  0  0  0  0  0  0  0  0  0
   -3.1622    0.4357    9.3905 H   0  0  0  0  0  0  0  0  0  0  0  0
   -1.1760   -1.4384    8.5885 H   0  0  0  0  0  0  0  0  0  0  0  0
   -2.9218   -2.8610    8.8194 H   0  0  0  0  0  0  0  0  0  0  0  0
   -2.4919   -1.8010    7.6169 H   0  0  0  0  0  0  0  0  0  0  0  0
   -4.1867   -0.2213    7.8391 H   0  0  0  0  0  0  0  0  0  0  0  0
   -4.5876   -0.7332    9.4695 H   0  0  0  0  0  0  0  0  0  0  0  0
   -6.3595   -0.9980    8.0421 H   0  0  0  0  0  0  0  0  0  0  0  0
   -8.2135   -1.7015    8.3654 H   0  0  0  0  0  0  0  0  0  0  0  0
  -11.2078   -2.2709    2.7195 H   0  0  0  0  0  0  0  0  0  0  0  0
   -8.7869   -3.5960    2.8599 H   0  0  0  0  0  0  0  0  0  0  0  0
   -6.9011   -3.6246    4.7475 H   0  0  0  0  0  0  0  0  0  0  0  0
    1.3997   -1.0979    9.1195 H   0  0  0  0  0  0  0  0  0  0  0  0
    4.5266   -0.1070   10.5235 H   0  0  0  0  0  0  0  0  0  0  0  0
    3.8294    0.5275   11.4544 H   0  0  0  0  0  0  0  0  0  0  0  0
    5.7258   -2.2478   14.3808 H   0  0  0  0  0  0  0  0  0  0  0  0
    6.0533   -2.9303   12.8198 H   0  0  0  0  0  0  0  0  0  0  0  0
    7.6385   -1.4791   14.9833 H   0  0  0  0  0  0  0  0  0  0  0  0
    8.2313   -2.7141   13.9387 H   0  0  0  0  0  0  0  0  0  0  0  0
    8.1433    0.1247   13.7338 H   0  0  0  0  0  0  0  0  0  0  0  0
    8.8752   -0.1692   12.6878 H   0  0  0  0  0  0  0  0  0  0  0  0
    7.2980   -1.8836   11.3854 H   0  0  0  0  0  0  0  0  0  0  0  0
    7.0721   -0.3809   10.8260 H   0  0  0  0  0  0  0  0  0  0  0  0
  1  2  1  0
  2  3  1  0
  3  4  1  0
  4  5  1  0
  5  6  1  0
  6  7  2  0
  6  8  1  0
  8  9  1  0
  9 10  2  0
 10 11  1  0
 11 12  2  0
 12 13  1  0
 13 14  2  0
 14 15  1  0
 15 16  1  0
  2 17  1  0
 17 18  1  0
 18 19  2  0
 18 20  1  0
 20 21  1  0
 21 22  1  0
 22 23  1  0
 23 24  1  0
 24 25  1  0
 16  8  2  0
 25 21  1  0
 15 11  1  0
  1 26  1  0
  1 27  1  0
  1 28  1  0
  2 29  1  0
  3 30  1  0
  3 31  1  0
  4 32  1  0
  4 33  1  0
  5 34  1  0
  9 35  1  0
 13 36  1  0
 14 37  1  0
 16 38  1  0
 17 39  1  0
 20 40  1  0
 20 41  1  0
 22 42  1  0
 22 43  1  0
 23 44  1  0
 23 45  1  0
 24 46  1  0
 24 47  1  0
 25 48  1  0
 25 49  1  0
M  END
>  <Energy>  (267) 
843.57111441228631

>  <compound_id>  (267) 
20933

>  <target_id>  (267) 
1

>  <reference_id>  (267) 
106

>  <inspiration_ids>  (267) 
[106, 99]

>  <energy_score>  (267) 
770.7551080919368

>  <distance_score>  (267) 
5.4105174164500385

>  <path>  (267) 
/opt/xchem-fragalysis-2/maxwin/BulkDock/SCRATCH/511017/C20933-P106/C20933-P106.minimised.mol

>  <scratch_subdir>  (267) 
/opt/xchem-fragalysis-2/maxwin/BulkDock/SCRATCH/511017/C20933-P106

>  <fragmenstein_runtime>  (267) 
12.75083327293396

>  <fragmenstein_outcome>  (267) 
too moved

>  <fragmenstein_mode>  (267) 
expansion

>  <fragmenstein_error>  (267) 


$$$$
C20933-P99
     RDKit          3D

 49 51  0  0  0  0  0  0  0  0999 V2000
   -2.5870    5.6396    6.6756 C   0  0  0  0  0  0  0  0  0  0  0  0
   -2.3252    4.9960    8.0168 C   0  0  0  0  0  0  0  0  0  0  0  0
   -3.4045    3.7913    8.1038 C   0  0  0  0  0  0  0  0  0  0  0  0
   -4.7784    3.7298    7.3727 C   0  0  0  0  0  0  0  0  0  0  0  0
   -5.3047    2.3185    7.3213 N   0  0  0  0  0  0  0  0  0  0  0  0
   -6.6959    1.7727    6.8751 C   0  0  0  0  0  0  0  0  0  0  0  0
   -7.6659    2.3428    6.5543 O   0  0  0  0  0  0  0  0  0  0  0  0
   -6.7278    0.2408    6.8760 C   0  0  0  0  0  0  0  0  0  0  0  0
   -5.6739   -0.6523    6.2940 C   0  0  0  0  0  0  0  0  0  0  0  0
   -5.7181   -1.9379    6.1055 N   0  0  0  0  0  0  0  0  0  0  0  0
   -6.8776   -2.5509    6.4564 C   0  0  0  0  0  0  0  0  0  0  0  0
   -7.2103   -3.8140    6.3209 N   0  0  0  0  0  0  0  0  0  0  0  0
   -8.5109   -3.8997    6.7361 C   0  0  0  0  0  0  0  0  0  0  0  0
   -8.9693   -2.6847    7.1863 C   0  0  0  0  0  0  0  0  0  0  0  0
   -7.9273   -1.8213    7.0003 N   0  0  0  0  0  0  0  0  0  0  0  0
   -7.8475   -0.4447    7.2066 C   0  0  0  0  0  0  0  0  0  0  0  0
   -0.7741    4.7246    8.2642 N   0  0  0  0  0  0  0  0  0  0  0  0
    0.1207    4.8790    9.6164 C   0  0  0  0  0  0  0  0  0  0  0  0
   -0.1741    5.3018   10.6876 O   0  0  0  0  0  0  0  0  0  0  0  0
    1.6777    4.2889    9.3717 C   0  0  0  0  0  0  0  0  0  0  0  0
    2.7760    4.5182   10.4456 N   0  0  0  0  0  0  0  0  0  0  0  0
    2.6382    3.9894   11.8038 C   0  0  0  0  0  0  0  0  0  0  0  0
    4.0604    3.9391   12.3493 C   0  0  0  0  0  0  0  0  0  0  0  0
    4.9299    4.5900   11.3129 C   0  0  0  0  0  0  0  0  0  0  0  0
    4.1644    4.1560   10.0692 C   0  0  0  0  0  0  0  0  0  0  0  0
   -2.6003    4.9635    5.8213 H   0  0  0  0  0  0  0  0  0  0  0  0
   -3.5517    6.1608    6.6835 H   0  0  0  0  0  0  0  0  0  0  0  0
   -1.8254    6.4001    6.4681 H   0  0  0  0  0  0  0  0  0  0  0  0
   -2.5748    5.7145    8.8080 H   0  0  0  0  0  0  0  0  0  0  0  0
   -2.9074    2.8392    7.9527 H   0  0  0  0  0  0  0  0  0  0  0  0
   -3.7245    3.8989    9.1415 H   0  0  0  0  0  0  0  0  0  0  0  0
   -4.7253    4.0721    6.3356 H   0  0  0  0  0  0  0  0  0  0  0  0
   -5.5323    4.3409    7.8785 H   0  0  0  0  0  0  0  0  0  0  0  0
   -4.7118    1.5437    7.6101 H   0  0  0  0  0  0  0  0  0  0  0  0
   -4.7550   -0.1365    5.9780 H   0  0  0  0  0  0  0  0  0  0  0  0
   -9.0491   -4.8348    6.6757 H   0  0  0  0  0  0  0  0  0  0  0  0
   -9.9265   -2.3737    7.5801 H   0  0  0  0  0  0  0  0  0  0  0  0
   -8.7420    0.0431    7.5776 H   0  0  0  0  0  0  0  0  0  0  0  0
   -0.2348    4.2495    7.5506 H   0  0  0  0  0  0  0  0  0  0  0  0
    2.0215    4.8046    8.4667 H   0  0  0  0  0  0  0  0  0  0  0  0
    1.6064    3.2252    9.1437 H   0  0  0  0  0  0  0  0  0  0  0  0
    2.1896    2.9943   11.8294 H   0  0  0  0  0  0  0  0  0  0  0  0
    2.0131    4.6584   12.4036 H   0  0  0  0  0  0  0  0  0  0  0  0
    4.2613    2.8738   12.3557 H   0  0  0  0  0  0  0  0  0  0  0  0
    4.1458    4.4343   13.3188 H   0  0  0  0  0  0  0  0  0  0  0  0
    4.8812    5.6816   11.4259 H   0  0  0  0  0  0  0  0  0  0  0  0
    5.9788    4.3254   11.3127 H   0  0  0  0  0  0  0  0  0  0  0  0
    4.2535    3.0824    9.8668 H   0  0  0  0  0  0  0  0  0  0  0  0
    4.4122    4.7020    9.1627 H   0  0  0  0  0  0  0  0  0  0  0  0
  1  2  1  0
  2  3  1  0
  3  4  1  0
  4  5  1  0
  5  6  1  0
  6  7  2  0
  6  8  1  0
  8  9  1  0
  9 10  2  0
 10 11  1  0
 11 12  2  0
 12 13  1  0
 13 14  2  0
 14 15  1  0
 15 16  1  0
  2 17  1  0
 17 18  1  0
 18 19  2  0
 18 20  1  0
 20 21  1  0
 21 22  1  0
 22 23  1  0
 23 24  1  0
 24 25  1  0
 16  8  2  0
 25 21  1  0
 15 11  1  0
  1 26  1  0
  1 27  1  0
  1 28  1  0
  2 29  1  0
  3 30  1  0
  3 31  1  0
  4 32  1  0
  4 33  1  0
  5 34  1  0
  9 35  1  0
 13 36  1  0
 14 37  1  0
 16 38  1  0
 17 39  1  0
 20 40  1  0
 20 41  1  0
 22 42  1  0
 22 43  1  0
 23 44  1  0
 23 45  1  0
 24 46  1  0
 24 47  1  0
 25 48  1  0
 25 49  1  0
M  END
>  <Energy>  (268) 
118.33895319759048

>  <compound_id>  (268) 
20933

>  <target_id>  (268) 
1

>  <reference_id>  (268) 
99

>  <inspiration_ids>  (268) 
[106, 99]

>  <energy_score>  (268) 
49.70513708786643

>  <distance_score>  (268) 
8.72249559269422

>  <path>  (268) 
/opt/xchem-fragalysis-2/maxwin/BulkDock/SCRATCH/511017/C20933-P99/C20933-P99.minimised.mol

>  <scratch_subdir>  (268) 
/opt/xchem-fragalysis-2/maxwin/BulkDock/SCRATCH/511017/C20933-P99

>  <fragmenstein_runtime>  (268) 
16.191858530044556

>  <fragmenstein_outcome>  (268) 
too moved

>  <fragmenstein_mode>  (268) 
expansion

>  <fragmenstein_error>  (268) 


$$$$
C25636-P106
     RDKit          3D

 44 46  0  0  0  0  0  0  0  0999 V2000
   -3.6917   -0.4626    7.1218 C   0  0  0  0  0  0  0  0  0  0  0  0
   -2.6994   -0.4625    8.3771 C   0  0  0  0  0  0  0  0  0  0  0  0
   -3.9280   -0.4144    9.2587 C   0  0  0  0  0  0  0  0  0  0  0  0
   -1.4451   -1.7002    8.1717 C   0  0  0  0  0  0  0  0  0  0  0  0
   -2.9497   -2.9277    7.9053 C   0  0  0  0  0  0  0  0  0  0  0  0
   -4.4974   -2.6859    7.6438 N   0  0  0  0  0  0  0  0  0  0  0  0
   -5.3649   -3.1722    6.6246 C   0  0  0  0  0  0  0  0  0  0  0  0
   -5.1381   -3.8206    5.6614 O   0  0  0  0  0  0  0  0  0  0  0  0
   -6.7564   -2.7802    6.8801 C   0  0  0  0  0  0  0  0  0  0  0  0
   -7.3113   -1.5082    7.1380 C   0  0  0  0  0  0  0  0  0  0  0  0
   -8.6143   -1.5514    7.4119 N   0  0  0  0  0  0  0  0  0  0  0  0
   -8.9164   -2.8579    7.3112 N   0  0  0  0  0  0  0  0  0  0  0  0
   -7.8516   -3.6232    6.9286 C   0  0  0  0  0  0  0  0  0  0  0  0
    0.4319   -2.3756    8.8725 N   0  0  0  0  0  0  0  0  0  0  0  0
    1.3786   -1.9308   10.3185 C   0  0  0  0  0  0  0  0  0  0  0  0
    1.0385   -1.0603   11.0116 O   0  0  0  0  0  0  0  0  0  0  0  0
    2.9048   -2.8595   11.1334 C   0  0  0  0  0  0  0  0  0  0  0  0
    2.8396   -3.5410   12.6767 C   0  0  0  0  0  0  0  0  0  0  0  0
    4.0328   -3.1779   13.2732 N   0  0  0  0  0  0  0  0  0  0  0  0
    5.1225   -2.9427   14.6497 C   0  0  0  0  0  0  0  0  0  0  0  0
    6.3941   -2.4853   14.6250 C   0  0  0  0  0  0  0  0  0  0  0  0
    6.7751   -1.9787   13.3751 C   0  0  0  0  0  0  0  0  0  0  0  0
    6.1176   -2.2559   12.3293 N   0  0  0  0  0  0  0  0  0  0  0  0
    4.8067   -3.2169   12.1873 C   0  0  0  0  0  0  0  0  0  0  0  0
    3.9795   -3.6718   11.1359 N   0  0  0  0  0  0  0  0  0  0  0  0
   -4.4207    0.3772    7.1352 H   0  0  0  0  0  0  0  0  0  0  0  0
   -3.1564   -0.5237    6.1865 H   0  0  0  0  0  0  0  0  0  0  0  0
   -4.6102   -0.9753    7.0199 H   0  0  0  0  0  0  0  0  0  0  0  0
   -2.2066    0.4844    8.5006 H   0  0  0  0  0  0  0  0  0  0  0  0
   -3.7706    0.1760   10.0957 H   0  0  0  0  0  0  0  0  0  0  0  0
   -4.8494    0.0553    8.8890 H   0  0  0  0  0  0  0  0  0  0  0  0
   -4.2340   -1.3686    9.5867 H   0  0  0  0  0  0  0  0  0  0  0  0
   -1.2020   -1.5515    7.1291 H   0  0  0  0  0  0  0  0  0  0  0  0
   -3.0107   -3.2650    8.9006 H   0  0  0  0  0  0  0  0  0  0  0  0
   -2.7749   -3.8326    7.3470 H   0  0  0  0  0  0  0  0  0  0  0  0
   -5.0236   -2.0979    8.2675 H   0  0  0  0  0  0  0  0  0  0  0  0
   -6.8238   -0.5439    7.1512 H   0  0  0  0  0  0  0  0  0  0  0  0
   -9.8644   -3.1487    7.5397 H   0  0  0  0  0  0  0  0  0  0  0  0
   -7.9485   -4.6883    6.7717 H   0  0  0  0  0  0  0  0  0  0  0  0
    0.9566   -3.1205    8.3434 H   0  0  0  0  0  0  0  0  0  0  0  0
    2.0622   -3.7543   13.3846 H   0  0  0  0  0  0  0  0  0  0  0  0
    4.7887   -3.4671   15.5445 H   0  0  0  0  0  0  0  0  0  0  0  0
    7.1533   -2.4626   15.3800 H   0  0  0  0  0  0  0  0  0  0  0  0
    7.6347   -1.3162   13.3377 H   0  0  0  0  0  0  0  0  0  0  0  0
  1  2  1  0
  2  3  1  0
  2  4  1  0
  4  5  1  0
  5  6  1  0
  6  7  1  0
  7  8  2  0
  7  9  1  0
  9 10  1  0
 10 11  2  0
 11 12  1  0
 12 13  1  0
  4 14  1  0
 14 15  1  0
 15 16  2  0
 15 17  1  0
 17 18  2  0
 18 19  1  0
 19 20  1  0
 20 21  2  0
 21 22  1  0
 22 23  2  0
 23 24  1  0
 24 25  2  0
 13  9  2  0
 25 17  1  0
 24 19  1  0
  1 26  1  0
  1 27  1  0
  1 28  1  0
  2 29  1  0
  3 30  1  0
  3 31  1  0
  3 32  1  0
  4 33  1  0
  5 34  1  0
  5 35  1  0
  6 36  1  0
 10 37  1  0
 12 38  1  0
 13 39  1  0
 14 40  1  0
 18 41  1  0
 20 42  1  0
 21 43  1  0
 22 44  1  0
M  END
>  <Energy>  (269) 
743.58911719709567

>  <compound_id>  (269) 
25636

>  <target_id>  (269) 
1

>  <reference_id>  (269) 
106

>  <inspiration_ids>  (269) 
[106, 99]

>  <energy_score>  (269) 
670.1480245471207

>  <distance_score>  (269) 
6.618717970310146

>  <path>  (269) 
/opt/xchem-fragalysis-2/maxwin/BulkDock/SCRATCH/511017/C25636-P106/C25636-P106.minimised.mol

>  <scratch_subdir>  (269) 
/opt/xchem-fragalysis-2/maxwin/BulkDock/SCRATCH/511017/C25636-P106

>  <fragmenstein_runtime>  (269) 
21.026842832565308

>  <fragmenstein_outcome>  (269) 
too moved

>  <fragmenstein_mode>  (269) 
expansion

>  <fragmenstein_error>  (269) 


$$$$
C25636-P99
     RDKit          3D

 44 46  0  0  0  0  0  0  0  0999 V2000
   -2.8577    0.7184    8.2864 C   0  0  0  0  0  0  0  0  0  0  0  0
   -2.5223   -0.4885    9.4775 C   0  0  0  0  0  0  0  0  0  0  0  0
   -4.2959   -0.3072    9.7241 C   0  0  0  0  0  0  0  0  0  0  0  0
   -0.7911   -1.2051   10.7789 C   0  0  0  0  0  0  0  0  0  0  0  0
   -1.4477   -1.5019    8.7536 C   0  0  0  0  0  0  0  0  0  0  0  0
   -2.6473   -1.6300    7.4282 N   0  0  0  0  0  0  0  0  0  0  0  0
   -3.5747   -2.6675    7.0953 C   0  0  0  0  0  0  0  0  0  0  0  0
   -3.7303   -3.7462    7.5646 O   0  0  0  0  0  0  0  0  0  0  0  0
   -4.5316   -2.2309    6.0585 C   0  0  0  0  0  0  0  0  0  0  0  0
   -4.9909   -2.8780    4.8926 C   0  0  0  0  0  0  0  0  0  0  0  0
   -5.9802   -2.2330    4.2681 N   0  0  0  0  0  0  0  0  0  0  0  0
   -6.2659   -1.2326    5.1075 N   0  0  0  0  0  0  0  0  0  0  0  0
   -5.4068   -1.1603    6.1654 C   0  0  0  0  0  0  0  0  0  0  0  0
    1.3562   -1.5833   10.9078 N   0  0  0  0  0  0  0  0  0  0  0  0
    2.5900   -2.7066   12.1452 C   0  0  0  0  0  0  0  0  0  0  0  0
    2.1973   -3.4624   13.0774 O   0  0  0  0  0  0  0  0  0  0  0  0
    4.6221   -2.6470   12.1757 C   0  0  0  0  0  0  0  0  0  0  0  0
    5.6163   -2.5023   13.7309 C   0  0  0  0  0  0  0  0  0  0  0  0
    6.8367   -1.8361   13.8359 N   0  0  0  0  0  0  0  0  0  0  0  0
    7.8286   -1.8252   14.8185 C   0  0  0  0  0  0  0  0  0  0  0  0
    8.7464   -0.8624   14.9406 C   0  0  0  0  0  0  0  0  0  0  0  0
    8.6035    0.1546   13.8938 C   0  0  0  0  0  0  0  0  0  0  0  0
    7.7482    0.0800   12.8958 N   0  0  0  0  0  0  0  0  0  0  0  0
    6.8770   -0.9988   12.7973 C   0  0  0  0  0  0  0  0  0  0  0  0
    5.8546   -1.3048   12.0229 N   0  0  0  0  0  0  0  0  0  0  0  0
   -2.1309    0.7781    7.5242 H   0  0  0  0  0  0  0  0  0  0  0  0
   -3.1373    1.7151    8.5789 H   0  0  0  0  0  0  0  0  0  0  0  0
   -3.7286    0.4292    7.6860 H   0  0  0  0  0  0  0  0  0  0  0  0
   -3.1664   -1.3862    9.1730 H   0  0  0  0  0  0  0  0  0  0  0  0
   -4.8313   -1.1349    9.2189 H   0  0  0  0  0  0  0  0  0  0  0  0
   -4.5232   -0.3051   10.7856 H   0  0  0  0  0  0  0  0  0  0  0  0
   -4.8039    0.4730    9.1600 H   0  0  0  0  0  0  0  0  0  0  0  0
   -1.1025   -0.6667   11.6827 H   0  0  0  0  0  0  0  0  0  0  0  0
   -2.0633   -2.3916    8.8553 H   0  0  0  0  0  0  0  0  0  0  0  0
   -1.3625   -0.6760    8.1326 H   0  0  0  0  0  0  0  0  0  0  0  0
   -2.7439   -0.8764    6.7623 H   0  0  0  0  0  0  0  0  0  0  0  0
   -4.6583   -3.8035    4.4607 H   0  0  0  0  0  0  0  0  0  0  0  0
   -7.0654   -0.6419    4.9007 H   0  0  0  0  0  0  0  0  0  0  0  0
   -5.5576   -0.4186    6.9327 H   0  0  0  0  0  0  0  0  0  0  0  0
    1.8645   -1.1609   10.2362 H   0  0  0  0  0  0  0  0  0  0  0  0
    5.1631   -2.7032   14.6991 H   0  0  0  0  0  0  0  0  0  0  0  0
    7.8838   -2.7004   15.4124 H   0  0  0  0  0  0  0  0  0  0  0  0
    9.5809   -0.8465   15.6209 H   0  0  0  0  0  0  0  0  0  0  0  0
    9.2989    1.0080   13.9486 H   0  0  0  0  0  0  0  0  0  0  0  0
  1  2  1  0
  2  3  1  0
  2  4  1  0
  4  5  1  0
  5  6  1  0
  6  7  1  0
  7  8  2  0
  7  9  1  0
  9 10  1  0
 10 11  2  0
 11 12  1  0
 12 13  1  0
  4 14  1  0
 14 15  1  0
 15 16  2  0
 15 17  1  0
 17 18  2  0
 18 19  1  0
 19 20  1  0
 20 21  2  0
 21 22  1  0
 22 23  2  0
 23 24  1  0
 24 25  2  0
 13  9  2  0
 25 17  1  0
 24 19  1  0
  1 26  1  0
  1 27  1  0
  1 28  1  0
  2 29  1  0
  3 30  1  0
  3 31  1  0
  3 32  1  0
  4 33  1  0
  5 34  1  0
  5 35  1  0
  6 36  1  0
 10 37  1  0
 12 38  1  0
 13 39  1  0
 14 40  1  0
 18 41  1  0
 20 42  1  0
 21 43  1  0
 22 44  1  0
M  END
>  <Energy>  (270) 
1442.0706003444936

>  <compound_id>  (270) 
25636

>  <target_id>  (270) 
1

>  <reference_id>  (270) 
99

>  <inspiration_ids>  (270) 
[106, 99]

>  <energy_score>  (270) 
1368.6295076945369

>  <distance_score>  (270) 
5.36660389004604

>  <path>  (270) 
/opt/xchem-fragalysis-2/maxwin/BulkDock/SCRATCH/511017/C25636-P99/C25636-P99.minimised.mol

>  <scratch_subdir>  (270) 
/opt/xchem-fragalysis-2/maxwin/BulkDock/SCRATCH/511017/C25636-P99

>  <fragmenstein_runtime>  (270) 
18.14218807220459

>  <fragmenstein_outcome>  (270) 
too moved

>  <fragmenstein_mode>  (270) 
expansion

>  <fragmenstein_error>  (270) 


$$$$
C25637-P106
     RDKit          3D

 44 46  0  0  0  0  0  0  0  0999 V2000
   -2.3857   -1.2732    7.4894 C   0  0  0  0  0  0  0  0  0  0  0  0
   -1.7075   -1.6498    8.6837 C   0  0  0  0  0  0  0  0  0  0  0  0
   -1.7822   -0.4167    9.1765 N   0  0  0  0  0  0  0  0  0  0  0  0
   -3.5066   -0.0741    9.6001 C   0  0  0  0  0  0  0  0  0  0  0  0
   -4.0496   -0.2536   10.6821 O   0  0  0  0  0  0  0  0  0  0  0  0
   -4.6392    0.3863    8.4908 C   0  0  0  0  0  0  0  0  0  0  0  0
   -4.9621    0.2681    7.0942 C   0  0  0  0  0  0  0  0  0  0  0  0
   -6.2022    0.5462    6.6885 N   0  0  0  0  0  0  0  0  0  0  0  0
   -6.8693    0.4397    7.8181 N   0  0  0  0  0  0  0  0  0  0  0  0
   -6.0154    0.1750    8.8440 C   0  0  0  0  0  0  0  0  0  0  0  0
   -0.0970   -1.0708   10.4238 C   0  0  0  0  0  0  0  0  0  0  0  0
   -0.7449   -0.5167   12.0973 C   0  0  0  0  0  0  0  0  0  0  0  0
    1.9749   -1.0711   11.0762 C   0  0  0  0  0  0  0  0  0  0  0  0
    3.9784   -0.4373   11.3543 N   0  0  0  0  0  0  0  0  0  0  0  0
    5.5728   -1.3458   12.1400 C   0  0  0  0  0  0  0  0  0  0  0  0
    5.4351   -2.5655   12.4652 O   0  0  0  0  0  0  0  0  0  0  0  0
    6.9934   -0.8735   12.6016 C   0  0  0  0  0  0  0  0  0  0  0  0
    7.4898   -1.5762   13.8332 C   0  0  0  0  0  0  0  0  0  0  0  0
    8.6003   -0.8403   14.3601 N   0  0  0  0  0  0  0  0  0  0  0  0
    9.3935   -0.9674   15.4766 C   0  0  0  0  0  0  0  0  0  0  0  0
   10.5413   -0.2870   15.6004 C   0  0  0  0  0  0  0  0  0  0  0  0
   10.8284    0.6595   14.4969 C   0  0  0  0  0  0  0  0  0  0  0  0
   10.0772    0.8656   13.4625 N   0  0  0  0  0  0  0  0  0  0  0  0
    8.9502    0.0741   13.3870 C   0  0  0  0  0  0  0  0  0  0  0  0
    8.0592   -0.0496   12.3990 N   0  0  0  0  0  0  0  0  0  0  0  0
   -3.3962   -1.7318    7.4137 H   0  0  0  0  0  0  0  0  0  0  0  0
   -1.5468   -1.5924    6.8976 H   0  0  0  0  0  0  0  0  0  0  0  0
   -2.5770   -0.2642    7.3726 H   0  0  0  0  0  0  0  0  0  0  0  0
   -2.6122   -1.8749    9.2174 H   0  0  0  0  0  0  0  0  0  0  0  0
   -2.2307   -2.5874    8.4311 H   0  0  0  0  0  0  0  0  0  0  0  0
   -4.3249    0.0117    6.2816 H   0  0  0  0  0  0  0  0  0  0  0  0
   -7.8863    0.4525    7.8076 H   0  0  0  0  0  0  0  0  0  0  0  0
   -6.4839   -0.1561    9.7579 H   0  0  0  0  0  0  0  0  0  0  0  0
    0.6152   -0.4274    9.9527 H   0  0  0  0  0  0  0  0  0  0  0  0
    0.0805   -0.5719   12.8200 H   0  0  0  0  0  0  0  0  0  0  0  0
   -1.5544   -1.1735   12.3462 H   0  0  0  0  0  0  0  0  0  0  0  0
   -1.2406    0.4206   12.2653 H   0  0  0  0  0  0  0  0  0  0  0  0
    2.1807   -2.1220   10.7494 H   0  0  0  0  0  0  0  0  0  0  0  0
    1.7159   -0.8146   12.1090 H   0  0  0  0  0  0  0  0  0  0  0  0
    4.2090    0.5589   11.2202 H   0  0  0  0  0  0  0  0  0  0  0  0
    7.0606   -2.3881   14.3984 H   0  0  0  0  0  0  0  0  0  0  0  0
    9.0484   -1.6744   16.1691 H   0  0  0  0  0  0  0  0  0  0  0  0
   11.2584   -0.3937   16.3978 H   0  0  0  0  0  0  0  0  0  0  0  0
   11.7596    1.2398   14.6062 H   0  0  0  0  0  0  0  0  0  0  0  0
  1  2  1  0
  2  3  1  0
  3  4  1  0
  4  5  2  0
  4  6  1  0
  6  7  1  0
  7  8  2  0
  8  9  1  0
  9 10  1  0
  3 11  1  0
 11 12  1  0
 11 13  1  0
 13 14  1  0
 14 15  1  0
 15 16  2  0
 15 17  1  0
 17 18  2  0
 18 19  1  0
 19 20  1  0
 20 21  2  0
 21 22  1  0
 22 23  2  0
 23 24  1  0
 24 25  2  0
 10  6  2  0
 25 17  1  0
 24 19  1  0
  1 26  1  0
  1 27  1  0
  1 28  1  0
  2 29  1  0
  2 30  1  0
  7 31  1  0
  9 32  1  0
 10 33  1  0
 11 34  1  0
 12 35  1  0
 12 36  1  0
 12 37  1  0
 13 38  1  0
 13 39  1  0
 14 40  1  0
 18 41  1  0
 20 42  1  0
 21 43  1  0
 22 44  1  0
M  END
>  <Energy>  (271) 
1065.0289817957553

>  <compound_id>  (271) 
25637

>  <target_id>  (271) 
1

>  <reference_id>  (271) 
106

>  <inspiration_ids>  (271) 
[106, 99]

>  <energy_score>  (271) 
964.565722270065

>  <distance_score>  (271) 
4.729792652479857

>  <path>  (271) 
/opt/xchem-fragalysis-2/maxwin/BulkDock/SCRATCH/511017/C25637-P106/C25637-P106.minimised.mol

>  <scratch_subdir>  (271) 
/opt/xchem-fragalysis-2/maxwin/BulkDock/SCRATCH/511017/C25637-P106

>  <fragmenstein_runtime>  (271) 
8.826008081436157

>  <fragmenstein_outcome>  (271) 
too moved

>  <fragmenstein_mode>  (271) 
expansion

>  <fragmenstein_error>  (271) 


$$$$
C25637-P99
     RDKit          3D

 44 46  0  0  0  0  0  0  0  0999 V2000
   -4.6463   -2.5251    6.9369 C   0  0  0  0  0  0  0  0  0  0  0  0
   -3.4104   -2.2553    7.8107 C   0  0  0  0  0  0  0  0  0  0  0  0
   -3.1638   -0.7060    8.1479 N   0  0  0  0  0  0  0  0  0  0  0  0
   -4.2246   -0.2181    8.8682 C   0  0  0  0  0  0  0  0  0  0  0  0
   -4.3980   -0.1609   10.0290 O   0  0  0  0  0  0  0  0  0  0  0  0
   -5.3674    0.2101    8.0143 C   0  0  0  0  0  0  0  0  0  0  0  0
   -6.7159    0.3587    8.4516 C   0  0  0  0  0  0  0  0  0  0  0  0
   -7.5814    0.5792    7.4600 N   0  0  0  0  0  0  0  0  0  0  0  0
   -6.8127    0.5542    6.3693 N   0  0  0  0  0  0  0  0  0  0  0  0
   -5.4899    0.3615    6.6453 C   0  0  0  0  0  0  0  0  0  0  0  0
   -1.4809   -1.3563    8.6986 C   0  0  0  0  0  0  0  0  0  0  0  0
   -1.5820   -1.1574    6.9024 C   0  0  0  0  0  0  0  0  0  0  0  0
    0.4556   -1.4240    9.7492 C   0  0  0  0  0  0  0  0  0  0  0  0
    2.0550   -1.4034   11.0207 N   0  0  0  0  0  0  0  0  0  0  0  0
    3.6009   -2.6027   11.2177 C   0  0  0  0  0  0  0  0  0  0  0  0
    3.6707   -3.6427   10.5561 O   0  0  0  0  0  0  0  0  0  0  0  0
    5.2749   -2.3808   12.2193 C   0  0  0  0  0  0  0  0  0  0  0  0
    5.8701   -2.3613   13.7688 C   0  0  0  0  0  0  0  0  0  0  0  0
    7.0815   -1.7220   13.8873 N   0  0  0  0  0  0  0  0  0  0  0  0
    8.0400   -1.7585   14.8898 C   0  0  0  0  0  0  0  0  0  0  0  0
    8.9703   -0.8121   15.0495 C   0  0  0  0  0  0  0  0  0  0  0  0
    8.8237    0.2709   14.0662 C   0  0  0  0  0  0  0  0  0  0  0  0
    7.9810    0.2569   13.0670 N   0  0  0  0  0  0  0  0  0  0  0  0
    7.1561   -0.8507   12.8598 C   0  0  0  0  0  0  0  0  0  0  0  0
    6.3055   -1.1824   11.9061 N   0  0  0  0  0  0  0  0  0  0  0  0
   -4.5746   -2.0324    5.9648 H   0  0  0  0  0  0  0  0  0  0  0  0
   -4.7100   -3.5906    6.7307 H   0  0  0  0  0  0  0  0  0  0  0  0
   -5.5858   -2.2680    7.4264 H   0  0  0  0  0  0  0  0  0  0  0  0
   -3.5664   -2.6909    8.7495 H   0  0  0  0  0  0  0  0  0  0  0  0
   -2.6865   -2.8886    7.3381 H   0  0  0  0  0  0  0  0  0  0  0  0
   -7.0984    0.2743    9.4612 H   0  0  0  0  0  0  0  0  0  0  0  0
   -7.2606    0.6603    5.4647 H   0  0  0  0  0  0  0  0  0  0  0  0
   -4.7834    0.2495    5.8393 H   0  0  0  0  0  0  0  0  0  0  0  0
   -2.0392   -2.1415    9.0669 H   0  0  0  0  0  0  0  0  0  0  0  0
   -2.3955   -1.4689    6.2323 H   0  0  0  0  0  0  0  0  0  0  0  0
   -0.7245   -1.4463    6.3100 H   0  0  0  0  0  0  0  0  0  0  0  0
   -1.8223   -0.0988    6.8937 H   0  0  0  0  0  0  0  0  0  0  0  0
    0.3391   -1.9740   10.6759 H   0  0  0  0  0  0  0  0  0  0  0  0
   -0.1489   -0.9705   10.5759 H   0  0  0  0  0  0  0  0  0  0  0  0
    2.2131   -0.5643   11.5733 H   0  0  0  0  0  0  0  0  0  0  0  0
    5.3645   -2.6531   14.6774 H   0  0  0  0  0  0  0  0  0  0  0  0
    8.0339   -2.6620   15.4430 H   0  0  0  0  0  0  0  0  0  0  0  0
    9.7905   -0.8184   15.7461 H   0  0  0  0  0  0  0  0  0  0  0  0
    9.4896    1.1385   14.1988 H   0  0  0  0  0  0  0  0  0  0  0  0
  1  2  1  0
  2  3  1  0
  3  4  1  0
  4  5  2  0
  4  6  1  0
  6  7  1  0
  7  8  2  0
  8  9  1  0
  9 10  1  0
  3 11  1  0
 11 12  1  0
 11 13  1  0
 13 14  1  0
 14 15  1  0
 15 16  2  0
 15 17  1  0
 17 18  2  0
 18 19  1  0
 19 20  1  0
 20 21  2  0
 21 22  1  0
 22 23  2  0
 23 24  1  0
 24 25  2  0
 10  6  2  0
 25 17  1  0
 24 19  1  0
  1 26  1  0
  1 27  1  0
  1 28  1  0
  2 29  1  0
  2 30  1  0
  7 31  1  0
  9 32  1  0
 10 33  1  0
 11 34  1  0
 12 35  1  0
 12 36  1  0
 12 37  1  0
 13 38  1  0
 13 39  1  0
 14 40  1  0
 18 41  1  0
 20 42  1  0
 21 43  1  0
 22 44  1  0
M  END
>  <Energy>  (272) 
963.78588804743742

>  <compound_id>  (272) 
25637

>  <target_id>  (272) 
1

>  <reference_id>  (272) 
99

>  <inspiration_ids>  (272) 
[106, 99]

>  <energy_score>  (272) 
863.3226285217575

>  <distance_score>  (272) 
5.245778238937929

>  <path>  (272) 
/opt/xchem-fragalysis-2/maxwin/BulkDock/SCRATCH/511017/C25637-P99/C25637-P99.minimised.mol

>  <scratch_subdir>  (272) 
/opt/xchem-fragalysis-2/maxwin/BulkDock/SCRATCH/511017/C25637-P99

>  <fragmenstein_runtime>  (272) 
12.922024011611938

>  <fragmenstein_outcome>  (272) 
too moved

>  <fragmenstein_mode>  (272) 
expansion

>  <fragmenstein_error>  (272) 


$$$$
C25638-P106
     RDKit          3D

 41 43  0  0  0  0  0  0  0  0999 V2000
   -3.3895   -1.6842    8.1159 C   0  0  0  0  0  0  0  0  0  0  0  0
   -3.6239   -0.6675    9.2505 C   0  0  0  0  0  0  0  0  0  0  0  0
   -1.7482   -0.7282    9.7327 C   0  0  0  0  0  0  0  0  0  0  0  0
   -0.8172   -0.7109   11.7809 C   0  0  0  0  0  0  0  0  0  0  0  0
    1.1593   -1.0895   12.3392 N   0  0  0  0  0  0  0  0  0  0  0  0
    1.9629   -2.5347   13.4771 C   0  0  0  0  0  0  0  0  0  0  0  0
    1.2913   -3.3663   14.1287 O   0  0  0  0  0  0  0  0  0  0  0  0
    3.8942   -3.0261   13.5715 C   0  0  0  0  0  0  0  0  0  0  0  0
    5.4613   -2.8828   12.8041 C   0  0  0  0  0  0  0  0  0  0  0  0
    6.7423   -2.5265   13.8848 N   0  0  0  0  0  0  0  0  0  0  0  0
    8.1250   -2.4709   14.1041 C   0  0  0  0  0  0  0  0  0  0  0  0
    8.8989   -1.5948   14.7932 C   0  0  0  0  0  0  0  0  0  0  0  0
    8.0822   -0.9038   15.7002 C   0  0  0  0  0  0  0  0  0  0  0  0
    6.9015   -1.3618   15.8777 N   0  0  0  0  0  0  0  0  0  0  0  0
    6.1847   -2.2441   14.9856 C   0  0  0  0  0  0  0  0  0  0  0  0
    4.9945   -2.8235   14.9802 N   0  0  0  0  0  0  0  0  0  0  0  0
   -4.7088   -0.1238    8.3628 N   0  0  0  0  0  0  0  0  0  0  0  0
   -6.1358   -0.1476    8.5006 C   0  0  0  0  0  0  0  0  0  0  0  0
   -6.8237   -0.5318    9.3939 O   0  0  0  0  0  0  0  0  0  0  0  0
   -6.8544    0.2831    7.2985 C   0  0  0  0  0  0  0  0  0  0  0  0
   -6.4980    0.9912    6.1370 C   0  0  0  0  0  0  0  0  0  0  0  0
   -7.4715    1.0325    5.2237 N   0  0  0  0  0  0  0  0  0  0  0  0
   -8.4675    0.3329    5.7886 N   0  0  0  0  0  0  0  0  0  0  0  0
   -8.1614   -0.1052    7.0364 C   0  0  0  0  0  0  0  0  0  0  0  0
   -4.2852   -2.0749    7.6054 H   0  0  0  0  0  0  0  0  0  0  0  0
   -2.8896   -2.5850    8.4312 H   0  0  0  0  0  0  0  0  0  0  0  0
   -2.7817   -1.1578    7.3832 H   0  0  0  0  0  0  0  0  0  0  0  0
   -3.4478    0.4087    9.2854 H   0  0  0  0  0  0  0  0  0  0  0  0
   -1.7567    0.2152    9.1625 H   0  0  0  0  0  0  0  0  0  0  0  0
   -1.4357   -1.3004    8.8758 H   0  0  0  0  0  0  0  0  0  0  0  0
   -1.4543   -1.2868   12.5098 H   0  0  0  0  0  0  0  0  0  0  0  0
   -1.0850    0.1957   12.3461 H   0  0  0  0  0  0  0  0  0  0  0  0
    1.8862   -0.6048   11.8549 H   0  0  0  0  0  0  0  0  0  0  0  0
    5.9095   -2.0318   12.2986 H   0  0  0  0  0  0  0  0  0  0  0  0
    8.5245   -3.3852   14.5004 H   0  0  0  0  0  0  0  0  0  0  0  0
    9.9327   -1.7886   15.0564 H   0  0  0  0  0  0  0  0  0  0  0  0
    8.5245   -0.1182   16.3300 H   0  0  0  0  0  0  0  0  0  0  0  0
   -4.4723    0.1969    7.4313 H   0  0  0  0  0  0  0  0  0  0  0  0
   -5.5692    1.4771    5.8862 H   0  0  0  0  0  0  0  0  0  0  0  0
   -9.3270    0.1970    5.2649 H   0  0  0  0  0  0  0  0  0  0  0  0
   -8.8604   -0.6920    7.6192 H   0  0  0  0  0  0  0  0  0  0  0  0
  1  2  1  0
  2  3  1  0
  3  4  1  0
  4  5  1  0
  5  6  1  0
  6  7  2  0
  6  8  1  0
  8  9  2  0
  9 10  1  0
 10 11  1  0
 11 12  2  0
 12 13  1  0
 13 14  2  0
 14 15  1  0
 15 16  2  0
  2 17  1  0
 17 18  1  0
 18 19  2  0
 18 20  1  0
 20 21  1  0
 21 22  2  0
 22 23  1  0
 23 24  1  0
 16  8  1  0
 24 20  2  0
 15 10  1  0
  1 25  1  0
  1 26  1  0
  1 27  1  0
  2 28  1  0
  3 29  1  0
  3 30  1  0
  4 31  1  0
  4 32  1  0
  5 33  1  0
  9 34  1  0
 11 35  1  0
 12 36  1  0
 13 37  1  0
 17 38  1  0
 21 39  1  0
 23 40  1  0
 24 41  1  0
M  END
>  <Energy>  (273) 
990.22395325735715

>  <compound_id>  (273) 
25638

>  <target_id>  (273) 
1

>  <reference_id>  (273) 
106

>  <inspiration_ids>  (273) 
[106, 99]

>  <energy_score>  (273) 
929.3046017414401

>  <distance_score>  (273) 
5.648603189679549

>  <path>  (273) 
/opt/xchem-fragalysis-2/maxwin/BulkDock/SCRATCH/511017/C25638-P106/C25638-P106.minimised.mol

>  <scratch_subdir>  (273) 
/opt/xchem-fragalysis-2/maxwin/BulkDock/SCRATCH/511017/C25638-P106

>  <fragmenstein_runtime>  (273) 
17.75550866127014

>  <fragmenstein_outcome>  (273) 
too moved

>  <fragmenstein_mode>  (273) 
expansion

>  <fragmenstein_error>  (273) 


$$$$
C25638-P99
     RDKit          3D

 41 43  0  0  0  0  0  0  0  0999 V2000
   -1.9342   -1.4674    7.0330 C   0  0  0  0  0  0  0  0  0  0  0  0
   -1.7070   -1.2574    8.5898 C   0  0  0  0  0  0  0  0  0  0  0  0
    0.1176   -1.1918    9.6490 C   0  0  0  0  0  0  0  0  0  0  0  0
    1.4893   -1.7601   10.8670 C   0  0  0  0  0  0  0  0  0  0  0  0
    3.2121   -1.8046   11.2289 N   0  0  0  0  0  0  0  0  0  0  0  0
    4.0793   -2.8932   11.7896 C   0  0  0  0  0  0  0  0  0  0  0  0
    3.8276   -4.0454   12.0304 O   0  0  0  0  0  0  0  0  0  0  0  0
    5.7243   -2.1261   12.2709 C   0  0  0  0  0  0  0  0  0  0  0  0
    6.6569   -1.0798   11.9977 C   0  0  0  0  0  0  0  0  0  0  0  0
    7.4673   -0.7694   13.1336 N   0  0  0  0  0  0  0  0  0  0  0  0
    8.4362    0.2986   13.4349 C   0  0  0  0  0  0  0  0  0  0  0  0
    9.1257    0.3652   14.5769 C   0  0  0  0  0  0  0  0  0  0  0  0
    8.8530   -0.7751   15.4383 C   0  0  0  0  0  0  0  0  0  0  0  0
    7.9599   -1.6936   15.2602 N   0  0  0  0  0  0  0  0  0  0  0  0
    7.1935   -1.6570   14.1346 C   0  0  0  0  0  0  0  0  0  0  0  0
    6.0911   -2.2887   13.8142 N   0  0  0  0  0  0  0  0  0  0  0  0
   -3.2780   -0.9692    8.7485 N   0  0  0  0  0  0  0  0  0  0  0  0
   -4.4456   -1.4932    7.9865 C   0  0  0  0  0  0  0  0  0  0  0  0
   -4.5048   -2.3237    7.1203 O   0  0  0  0  0  0  0  0  0  0  0  0
   -5.7425   -0.8569    8.2152 C   0  0  0  0  0  0  0  0  0  0  0  0
   -7.0256   -1.4299    7.9792 C   0  0  0  0  0  0  0  0  0  0  0  0
   -8.0248   -0.5522    8.0823 N   0  0  0  0  0  0  0  0  0  0  0  0
   -7.3922    0.6083    8.2677 N   0  0  0  0  0  0  0  0  0  0  0  0
   -6.0322    0.4878    8.2460 C   0  0  0  0  0  0  0  0  0  0  0  0
   -1.0789   -1.4705    6.3833 H   0  0  0  0  0  0  0  0  0  0  0  0
   -2.4631   -2.4021    6.9618 H   0  0  0  0  0  0  0  0  0  0  0  0
   -2.6058   -0.7213    6.5861 H   0  0  0  0  0  0  0  0  0  0  0  0
   -1.7580   -0.2056    8.3609 H   0  0  0  0  0  0  0  0  0  0  0  0
    0.8227   -0.4852    9.2143 H   0  0  0  0  0  0  0  0  0  0  0  0
   -0.3593   -1.0534   10.7040 H   0  0  0  0  0  0  0  0  0  0  0  0
    1.2670   -1.0946   11.7169 H   0  0  0  0  0  0  0  0  0  0  0  0
    1.8455   -1.4398    9.9813 H   0  0  0  0  0  0  0  0  0  0  0  0
    3.7327   -0.9237   11.2354 H   0  0  0  0  0  0  0  0  0  0  0  0
    6.8553   -0.5398   11.0942 H   0  0  0  0  0  0  0  0  0  0  0  0
    8.6714    0.9790   12.6468 H   0  0  0  0  0  0  0  0  0  0  0  0
    9.8886    1.0897   14.8132 H   0  0  0  0  0  0  0  0  0  0  0  0
    9.5029   -0.8268   16.3195 H   0  0  0  0  0  0  0  0  0  0  0  0
   -3.6065   -0.3316    9.4653 H   0  0  0  0  0  0  0  0  0  0  0  0
   -7.2626   -2.4521    7.7104 H   0  0  0  0  0  0  0  0  0  0  0  0
   -7.9501    1.4543    8.3285 H   0  0  0  0  0  0  0  0  0  0  0  0
   -5.4063    1.3572    8.1627 H   0  0  0  0  0  0  0  0  0  0  0  0
  1  2  1  0
  2  3  1  0
  3  4  1  0
  4  5  1  0
  5  6  1  0
  6  7  2  0
  6  8  1  0
  8  9  2  0
  9 10  1  0
 10 11  1  0
 11 12  2  0
 12 13  1  0
 13 14  2  0
 14 15  1  0
 15 16  2  0
  2 17  1  0
 17 18  1  0
 18 19  2  0
 18 20  1  0
 20 21  1  0
 21 22  2  0
 22 23  1  0
 23 24  1  0
 16  8  1  0
 24 20  2  0
 15 10  1  0
  1 25  1  0
  1 26  1  0
  1 27  1  0
  2 28  1  0
  3 29  1  0
  3 30  1  0
  4 31  1  0
  4 32  1  0
  5 33  1  0
  9 34  1  0
 11 35  1  0
 12 36  1  0
 13 37  1  0
 17 38  1  0
 21 39  1  0
 23 40  1  0
 24 41  1  0
M  END
>  <Energy>  (274) 
513.81144869360526

>  <compound_id>  (274) 
25638

>  <target_id>  (274) 
1

>  <reference_id>  (274) 
99

>  <inspiration_ids>  (274) 
[106, 99]

>  <energy_score>  (274) 
452.8920971776929

>  <distance_score>  (274) 
5.683922824960084

>  <path>  (274) 
/opt/xchem-fragalysis-2/maxwin/BulkDock/SCRATCH/511017/C25638-P99/C25638-P99.minimised.mol

>  <scratch_subdir>  (274) 
/opt/xchem-fragalysis-2/maxwin/BulkDock/SCRATCH/511017/C25638-P99

>  <fragmenstein_runtime>  (274) 
13.818127632141113

>  <fragmenstein_outcome>  (274) 
too moved

>  <fragmenstein_mode>  (274) 
expansion

>  <fragmenstein_error>  (274) 


$$$$
C25640-P106
     RDKit          3D

 34 37  0  0  0  0  0  0  0  0999 V2000
   -3.4182    0.6422    8.4613 O   0  0  0  0  0  0  0  0  0  0  0  0
   -3.2684   -0.5393    8.3253 C   0  0  0  0  0  0  0  0  0  0  0  0
   -4.1837   -1.5349    7.9067 N   0  0  0  0  0  0  0  0  0  0  0  0
   -5.6111   -1.4547    7.6122 C   0  0  0  0  0  0  0  0  0  0  0  0
   -6.4447   -1.8777    6.4786 C   0  0  0  0  0  0  0  0  0  0  0  0
   -6.8342   -0.7873    5.5035 C   0  0  0  0  0  0  0  0  0  0  0  0
   -7.7371   -0.8328    4.5790 N   0  0  0  0  0  0  0  0  0  0  0  0
   -8.4527   -1.9822    4.5172 C   0  0  0  0  0  0  0  0  0  0  0  0
   -9.3716   -2.3336    3.6450 N   0  0  0  0  0  0  0  0  0  0  0  0
   -9.8938   -3.5009    4.1222 C   0  0  0  0  0  0  0  0  0  0  0  0
   -9.2880   -3.8719    5.2984 C   0  0  0  0  0  0  0  0  0  0  0  0
   -8.2779   -2.9758    5.4760 N   0  0  0  0  0  0  0  0  0  0  0  0
   -7.2729   -2.9369    6.4364 C   0  0  0  0  0  0  0  0  0  0  0  0
   -1.6293   -1.0442    8.8983 C   0  0  0  0  0  0  0  0  0  0  0  0
   -2.1320   -0.2380    9.8340 C   0  0  0  0  0  0  0  0  0  0  0  0
   -1.0291   -0.5890   11.9476 S   0  0  0  0  0  0  0  0  0  0  0  0
    0.9805   -1.1562   10.9272 C   0  0  0  0  0  0  0  0  0  0  0  0
    2.9385   -2.0780   11.3859 C   0  0  0  0  0  0  0  0  0  0  0  0
    3.7362   -3.2024   12.0079 C   0  0  0  0  0  0  0  0  0  0  0  0
    5.1183   -3.0248   12.4027 N   0  0  0  0  0  0  0  0  0  0  0  0
    5.7322   -1.4000   12.2188 N   0  0  0  0  0  0  0  0  0  0  0  0
    4.3271   -0.9015   11.3892 C   0  0  0  0  0  0  0  0  0  0  0  0
    0.0318   -1.1952    9.9817 N   0  0  0  0  0  0  0  0  0  0  0  0
   -3.7396   -2.4392    7.9867 H   0  0  0  0  0  0  0  0  0  0  0  0
   -6.1286   -1.7212    8.5296 H   0  0  0  0  0  0  0  0  0  0  0  0
   -5.7639   -0.3642    7.6641 H   0  0  0  0  0  0  0  0  0  0  0  0
   -6.2639    0.1527    5.6004 H   0  0  0  0  0  0  0  0  0  0  0  0
  -10.6829   -4.0161    3.5951 H   0  0  0  0  0  0  0  0  0  0  0  0
   -9.4496   -4.7116    5.9559 H   0  0  0  0  0  0  0  0  0  0  0  0
   -7.2678   -3.7395    7.1620 H   0  0  0  0  0  0  0  0  0  0  0  0
   -3.1868    0.0475   10.0715 H   0  0  0  0  0  0  0  0  0  0  0  0
    3.3100   -4.1706   12.2390 H   0  0  0  0  0  0  0  0  0  0  0  0
    6.6951   -1.1725   11.9811 H   0  0  0  0  0  0  0  0  0  0  0  0
    4.3165    0.1267   11.0115 H   0  0  0  0  0  0  0  0  0  0  0  0
  1  2  2  0
  2  3  1  0
  3  4  1  0
  4  5  1  0
  5  6  1  0
  6  7  2  0
  7  8  1  0
  8  9  2  0
  9 10  1  0
 10 11  2  0
 11 12  1  0
 12 13  1  0
  2 14  1  0
 14 15  2  0
 15 16  1  0
 16 17  1  0
 17 18  1  0
 18 19  1  0
 19 20  2  0
 20 21  1  0
 21 22  1  0
 17 23  2  0
 13  5  2  0
 23 14  1  0
 12  8  1  0
 22 18  2  0
  3 24  1  0
  4 25  1  0
  4 26  1  0
  6 27  1  0
 10 28  1  0
 11 29  1  0
 13 30  1  0
 15 31  1  0
 19 32  1  0
 21 33  1  0
 22 34  1  0
M  END
>  <Energy>  (275) 
863.19739395019928

>  <compound_id>  (275) 
25640

>  <target_id>  (275) 
1

>  <reference_id>  (275) 
106

>  <inspiration_ids>  (275) 
[106, 99]

>  <energy_score>  (275) 
764.6156250896458

>  <distance_score>  (275) 
7.263324332021518

>  <path>  (275) 
/opt/xchem-fragalysis-2/maxwin/BulkDock/SCRATCH/511017/C25640-P106/C25640-P106.minimised.mol

>  <scratch_subdir>  (275) 
/opt/xchem-fragalysis-2/maxwin/BulkDock/SCRATCH/511017/C25640-P106

>  <fragmenstein_runtime>  (275) 
10.826327323913574

>  <fragmenstein_outcome>  (275) 
too moved

>  <fragmenstein_mode>  (275) 
expansion

>  <fragmenstein_error>  (275) 


$$$$
C25640-P99
     RDKit          3D

 34 37  0  0  0  0  0  0  0  0999 V2000
   -1.7132   -0.2251    8.1477 O   0  0  0  0  0  0  0  0  0  0  0  0
   -1.6183   -1.2335    8.6642 C   0  0  0  0  0  0  0  0  0  0  0  0
   -2.9295   -2.2243    8.5225 N   0  0  0  0  0  0  0  0  0  0  0  0
   -4.2540   -2.0219    7.9340 C   0  0  0  0  0  0  0  0  0  0  0  0
   -4.7689   -2.5256    6.6393 C   0  0  0  0  0  0  0  0  0  0  0  0
   -4.2080   -1.9689    5.3668 C   0  0  0  0  0  0  0  0  0  0  0  0
   -4.7240   -2.0300    4.1772 N   0  0  0  0  0  0  0  0  0  0  0  0
   -5.9645   -2.5827    4.0904 C   0  0  0  0  0  0  0  0  0  0  0  0
   -6.7593   -2.6773    3.0430 N   0  0  0  0  0  0  0  0  0  0  0  0
   -7.9548   -3.1381    3.5255 C   0  0  0  0  0  0  0  0  0  0  0  0
   -7.8782   -3.3919    4.8737 C   0  0  0  0  0  0  0  0  0  0  0  0
   -6.6003   -3.0633    5.2289 N   0  0  0  0  0  0  0  0  0  0  0  0
   -6.0036   -3.0460    6.4814 C   0  0  0  0  0  0  0  0  0  0  0  0
    0.1825   -1.3538    9.6290 C   0  0  0  0  0  0  0  0  0  0  0  0
    1.3584   -0.9366    9.4017 C   0  0  0  0  0  0  0  0  0  0  0  0
    1.4557   -1.0231   11.7254 S   0  0  0  0  0  0  0  0  0  0  0  0
    3.1842   -2.1545   11.0919 C   0  0  0  0  0  0  0  0  0  0  0  0
    5.0453   -2.5189   12.1688 C   0  0  0  0  0  0  0  0  0  0  0  0
    5.7170   -2.3877   13.9209 C   0  0  0  0  0  0  0  0  0  0  0  0
    6.8286   -1.7371   14.2293 N   0  0  0  0  0  0  0  0  0  0  0  0
    7.1574   -1.2486   13.0670 N   0  0  0  0  0  0  0  0  0  0  0  0
    6.2541   -1.4007   12.0471 C   0  0  0  0  0  0  0  0  0  0  0  0
    1.4535   -1.8268   10.9372 N   0  0  0  0  0  0  0  0  0  0  0  0
   -2.7576   -3.0240    9.0801 H   0  0  0  0  0  0  0  0  0  0  0  0
   -5.0278   -1.8307    8.6738 H   0  0  0  0  0  0  0  0  0  0  0  0
   -4.1300   -0.9546    7.6724 H   0  0  0  0  0  0  0  0  0  0  0  0
   -3.2473   -1.4384    5.4762 H   0  0  0  0  0  0  0  0  0  0  0  0
   -8.8138   -3.2598    2.8791 H   0  0  0  0  0  0  0  0  0  0  0  0
   -8.6083   -3.7568    5.5829 H   0  0  0  0  0  0  0  0  0  0  0  0
   -6.6415   -3.3509    7.2974 H   0  0  0  0  0  0  0  0  0  0  0  0
    1.5529    0.0763    9.0343 H   0  0  0  0  0  0  0  0  0  0  0  0
    5.1221   -2.6790   14.7796 H   0  0  0  0  0  0  0  0  0  0  0  0
    8.0449   -0.7572   13.0047 H   0  0  0  0  0  0  0  0  0  0  0  0
    6.5075   -0.7564   11.2195 H   0  0  0  0  0  0  0  0  0  0  0  0
  1  2  2  0
  2  3  1  0
  3  4  1  0
  4  5  1  0
  5  6  1  0
  6  7  2  0
  7  8  1  0
  8  9  2  0
  9 10  1  0
 10 11  2  0
 11 12  1  0
 12 13  1  0
  2 14  1  0
 14 15  2  0
 15 16  1  0
 16 17  1  0
 17 18  1  0
 18 19  1  0
 19 20  2  0
 20 21  1  0
 21 22  1  0
 17 23  2  0
 13  5  2  0
 23 14  1  0
 12  8  1  0
 22 18  2  0
  3 24  1  0
  4 25  1  0
  4 26  1  0
  6 27  1  0
 10 28  1  0
 11 29  1  0
 13 30  1  0
 15 31  1  0
 19 32  1  0
 21 33  1  0
 22 34  1  0
M  END
>  <Energy>  (276) 
944.38888693596391

>  <compound_id>  (276) 
25640

>  <target_id>  (276) 
1

>  <reference_id>  (276) 
99

>  <inspiration_ids>  (276) 
[106, 99]

>  <energy_score>  (276) 
845.8071180754114

>  <distance_score>  (276) 
6.489444064763076

>  <path>  (276) 
/opt/xchem-fragalysis-2/maxwin/BulkDock/SCRATCH/511017/C25640-P99/C25640-P99.minimised.mol

>  <scratch_subdir>  (276) 
/opt/xchem-fragalysis-2/maxwin/BulkDock/SCRATCH/511017/C25640-P99

>  <fragmenstein_runtime>  (276) 
8.80325984954834

>  <fragmenstein_outcome>  (276) 
too moved

>  <fragmenstein_mode>  (276) 
expansion

>  <fragmenstein_error>  (276) 


$$$$
C25641-P106
     RDKit          3D

 41 43  0  0  0  0  0  0  0  0999 V2000
    4.5584    6.2926   11.1924 C   0  0  0  0  0  0  0  0  0  0  0  0
    3.8930    4.9995   11.5426 N   0  0  0  0  0  0  0  0  0  0  0  0
    5.0905    4.8848   12.4719 C   0  0  0  0  0  0  0  0  0  0  0  0
    5.5150    5.8349   13.6713 C   0  0  0  0  0  0  0  0  0  0  0  0
    6.0147    5.0443   14.9406 N   0  0  0  0  0  0  0  0  0  0  0  0
    4.6145    5.3056   15.3799 C   0  0  0  0  0  0  0  0  0  0  0  0
    7.2572    5.5825   15.4084 C   0  0  0  0  0  0  0  0  0  0  0  0
    7.4806    6.4484   16.2126 O   0  0  0  0  0  0  0  0  0  0  0  0
    8.4329    4.8374   14.8417 C   0  0  0  0  0  0  0  0  0  0  0  0
    8.8158    4.7200   13.4129 C   0  0  0  0  0  0  0  0  0  0  0  0
    9.6909    3.9057   12.8932 N   0  0  0  0  0  0  0  0  0  0  0  0
   10.3692    3.1126   13.7761 C   0  0  0  0  0  0  0  0  0  0  0  0
   11.1766    2.1050   13.5208 N   0  0  0  0  0  0  0  0  0  0  0  0
   11.5923    1.6389   14.7423 C   0  0  0  0  0  0  0  0  0  0  0  0
   11.0004    2.3475   15.7607 C   0  0  0  0  0  0  0  0  0  0  0  0
   10.1670    3.2447   15.1467 N   0  0  0  0  0  0  0  0  0  0  0  0
    9.2005    4.0967   15.6721 C   0  0  0  0  0  0  0  0  0  0  0  0
    2.5162    5.2197   11.8233 C   0  0  0  0  0  0  0  0  0  0  0  0
    1.9603    5.4617   12.8605 O   0  0  0  0  0  0  0  0  0  0  0  0
    1.6973    5.0047   10.6079 C   0  0  0  0  0  0  0  0  0  0  0  0
    1.9521    4.2278    9.4403 C   0  0  0  0  0  0  0  0  0  0  0  0
    0.9057    4.1570    8.6042 N   0  0  0  0  0  0  0  0  0  0  0  0
   -0.0205    4.9213    9.2104 N   0  0  0  0  0  0  0  0  0  0  0  0
    0.3975    5.4329   10.4069 C   0  0  0  0  0  0  0  0  0  0  0  0
    4.1071    6.5845   10.2319 H   0  0  0  0  0  0  0  0  0  0  0  0
    5.6349    6.3097   10.9851 H   0  0  0  0  0  0  0  0  0  0  0  0
    4.2537    7.1087   11.8625 H   0  0  0  0  0  0  0  0  0  0  0  0
    5.9766    4.5648   11.8968 H   0  0  0  0  0  0  0  0  0  0  0  0
    4.8028    3.9520   12.9696 H   0  0  0  0  0  0  0  0  0  0  0  0
    6.4059    6.3661   13.3058 H   0  0  0  0  0  0  0  0  0  0  0  0
    4.8299    6.6851   13.8337 H   0  0  0  0  0  0  0  0  0  0  0  0
    3.8179    4.8764   14.7602 H   0  0  0  0  0  0  0  0  0  0  0  0
    4.4480    6.3430   15.7064 H   0  0  0  0  0  0  0  0  0  0  0  0
    4.5423    4.7452   16.3234 H   0  0  0  0  0  0  0  0  0  0  0  0
    8.2839    5.3932   12.7242 H   0  0  0  0  0  0  0  0  0  0  0  0
   12.3036    0.8258   14.8200 H   0  0  0  0  0  0  0  0  0  0  0  0
   11.0917    2.2961   16.8331 H   0  0  0  0  0  0  0  0  0  0  0  0
    9.0563    4.0746   16.7462 H   0  0  0  0  0  0  0  0  0  0  0  0
    2.8509    3.6721    9.1972 H   0  0  0  0  0  0  0  0  0  0  0  0
   -0.9499    4.9745    8.8048 H   0  0  0  0  0  0  0  0  0  0  0  0
   -0.2728    6.0054   11.0313 H   0  0  0  0  0  0  0  0  0  0  0  0
  1  2  1  0
  2  3  1  0
  3  4  1  0
  4  5  1  0
  5  6  1  0
  5  7  1  0
  7  8  2  0
  7  9  1  0
  9 10  1  0
 10 11  2  0
 11 12  1  0
 12 13  2  0
 13 14  1  0
 14 15  2  0
 15 16  1  0
 16 17  1  0
  2 18  1  0
 18 19  2  0
 18 20  1  0
 20 21  1  0
 21 22  2  0
 22 23  1  0
 23 24  1  0
 17  9  2  0
 24 20  2  0
 16 12  1  0
  1 25  1  0
  1 26  1  0
  1 27  1  0
  3 28  1  0
  3 29  1  0
  4 30  1  0
  4 31  1  0
  6 32  1  0
  6 33  1  0
  6 34  1  0
 10 35  1  0
 14 36  1  0
 15 37  1  0
 17 38  1  0
 21 39  1  0
 23 40  1  0
 24 41  1  0
M  END
>  <Energy>  (277) 
175.17971767746906

>  <compound_id>  (277) 
25641

>  <target_id>  (277) 
1

>  <reference_id>  (277) 
106

>  <inspiration_ids>  (277) 
[106, 99]

>  <energy_score>  (277) 
118.65464287378325

>  <distance_score>  (277) 
10.286619644070514

>  <path>  (277) 
/opt/xchem-fragalysis-2/maxwin/BulkDock/SCRATCH/511017/C25641-P106/C25641-P106.minimised.mol

>  <scratch_subdir>  (277) 
/opt/xchem-fragalysis-2/maxwin/BulkDock/SCRATCH/511017/C25641-P106

>  <fragmenstein_runtime>  (277) 
13.486635208129883

>  <fragmenstein_outcome>  (277) 
too moved

>  <fragmenstein_mode>  (277) 
expansion

>  <fragmenstein_error>  (277) 


$$$$
C25641-P99
     RDKit          3D

 41 43  0  0  0  0  0  0  0  0999 V2000
   -3.4571    0.1121    8.5899 C   0  0  0  0  0  0  0  0  0  0  0  0
   -3.6380   -1.3168    8.6213 N   0  0  0  0  0  0  0  0  0  0  0  0
   -2.0004   -1.2703    9.1532 C   0  0  0  0  0  0  0  0  0  0  0  0
   -0.6979   -1.1700   10.8774 C   0  0  0  0  0  0  0  0  0  0  0  0
   -0.1658   -1.0354   12.5560 N   0  0  0  0  0  0  0  0  0  0  0  0
   -1.0656   -0.0477   12.4465 C   0  0  0  0  0  0  0  0  0  0  0  0
    1.2561   -1.0408   12.7584 C   0  0  0  0  0  0  0  0  0  0  0  0
    1.8602   -0.0296   12.7579 O   0  0  0  0  0  0  0  0  0  0  0  0
    2.3359   -2.7815   13.2600 C   0  0  0  0  0  0  0  0  0  0  0  0
    2.3362   -4.0158   14.5607 C   0  0  0  0  0  0  0  0  0  0  0  0
    3.3307   -4.2403   15.5049 N   0  0  0  0  0  0  0  0  0  0  0  0
    4.5864   -3.3087   15.4653 C   0  0  0  0  0  0  0  0  0  0  0  0
    4.8555   -2.0852   15.8214 N   0  0  0  0  0  0  0  0  0  0  0  0
    6.3643   -1.6855   15.0364 C   0  0  0  0  0  0  0  0  0  0  0  0
    6.1267   -2.1377   13.8540 C   0  0  0  0  0  0  0  0  0  0  0  0
    4.8093   -2.6746   14.1846 N   0  0  0  0  0  0  0  0  0  0  0  0
    3.6131   -3.1053   12.9289 C   0  0  0  0  0  0  0  0  0  0  0  0
   -4.2055   -1.7647    7.3824 C   0  0  0  0  0  0  0  0  0  0  0  0
   -3.6760   -2.1346    6.3742 O   0  0  0  0  0  0  0  0  0  0  0  0
   -5.6757   -1.7606    7.3379 C   0  0  0  0  0  0  0  0  0  0  0  0
   -6.4570   -2.4711    6.3862 C   0  0  0  0  0  0  0  0  0  0  0  0
   -7.7691   -2.3233    6.5664 N   0  0  0  0  0  0  0  0  0  0  0  0
   -7.8491   -1.5337    7.6456 N   0  0  0  0  0  0  0  0  0  0  0  0
   -6.6273   -1.1222    8.1089 C   0  0  0  0  0  0  0  0  0  0  0  0
   -3.4968    0.4673    9.5876 H   0  0  0  0  0  0  0  0  0  0  0  0
   -2.7043    0.5128    7.9176 H   0  0  0  0  0  0  0  0  0  0  0  0
   -4.3701    0.5425    8.1533 H   0  0  0  0  0  0  0  0  0  0  0  0
   -2.0630   -2.2725    8.8078 H   0  0  0  0  0  0  0  0  0  0  0  0
   -1.5405   -0.8962    8.2693 H   0  0  0  0  0  0  0  0  0  0  0  0
   -1.5108   -0.5643   11.0428 H   0  0  0  0  0  0  0  0  0  0  0  0
   -1.2336   -1.9109   11.3279 H   0  0  0  0  0  0  0  0  0  0  0  0
   -1.7405   -0.9239   12.5957 H   0  0  0  0  0  0  0  0  0  0  0  0
   -2.0746    0.1019   12.8332 H   0  0  0  0  0  0  0  0  0  0  0  0
   -0.5621    0.7536   13.0513 H   0  0  0  0  0  0  0  0  0  0  0  0
    1.4093   -4.6074   14.6066 H   0  0  0  0  0  0  0  0  0  0  0  0
    7.0176   -0.9508   15.5098 H   0  0  0  0  0  0  0  0  0  0  0  0
    6.3992   -1.7005   12.8987 H   0  0  0  0  0  0  0  0  0  0  0  0
    4.0653   -2.8639   11.9688 H   0  0  0  0  0  0  0  0  0  0  0  0
   -6.1043   -3.0992    5.5768 H   0  0  0  0  0  0  0  0  0  0  0  0
   -8.7721   -1.3153    8.0099 H   0  0  0  0  0  0  0  0  0  0  0  0
   -6.5540   -0.4553    8.9539 H   0  0  0  0  0  0  0  0  0  0  0  0
  1  2  1  0
  2  3  1  0
  3  4  1  0
  4  5  1  0
  5  6  1  0
  5  7  1  0
  7  8  2  0
  7  9  1  0
  9 10  1  0
 10 11  2  0
 11 12  1  0
 12 13  2  0
 13 14  1  0
 14 15  2  0
 15 16  1  0
 16 17  1  0
  2 18  1  0
 18 19  2  0
 18 20  1  0
 20 21  1  0
 21 22  2  0
 22 23  1  0
 23 24  1  0
 17  9  2  0
 24 20  2  0
 16 12  1  0
  1 25  1  0
  1 26  1  0
  1 27  1  0
  3 28  1  0
  3 29  1  0
  4 30  1  0
  4 31  1  0
  6 32  1  0
  6 33  1  0
  6 34  1  0
 10 35  1  0
 14 36  1  0
 15 37  1  0
 17 38  1  0
 21 39  1  0
 23 40  1  0
 24 41  1  0
M  END
>  <Energy>  (278) 
916.50781463511782

>  <compound_id>  (278) 
25641

>  <target_id>  (278) 
1

>  <reference_id>  (278) 
99

>  <inspiration_ids>  (278) 
[106, 99]

>  <energy_score>  (278) 
859.9827398314349

>  <distance_score>  (278) 
7.706944512036725

>  <path>  (278) 
/opt/xchem-fragalysis-2/maxwin/BulkDock/SCRATCH/511017/C25641-P99/C25641-P99.minimised.mol

>  <scratch_subdir>  (278) 
/opt/xchem-fragalysis-2/maxwin/BulkDock/SCRATCH/511017/C25641-P99

>  <fragmenstein_runtime>  (278) 
9.069282054901123

>  <fragmenstein_outcome>  (278) 
too moved

>  <fragmenstein_mode>  (278) 
expansion

>  <fragmenstein_error>  (278) 


$$$$
C25642-P106
     RDKit          3D

 39 41  0  0  0  0  0  0  0  0999 V2000
   -5.4146    0.7585    8.0321 O   0  0  0  0  0  0  0  0  0  0  0  0
   -5.1953   -0.3480    7.6408 C   0  0  0  0  0  0  0  0  0  0  0  0
   -4.1483   -1.2707    7.9785 N   0  0  0  0  0  0  0  0  0  0  0  0
   -3.0874   -1.1896    8.9758 C   0  0  0  0  0  0  0  0  0  0  0  0
   -1.3228   -1.0326    9.1096 C   0  0  0  0  0  0  0  0  0  0  0  0
   -1.4464   -1.5579    7.6762 O   0  0  0  0  0  0  0  0  0  0  0  0
    0.6891   -1.4257   10.0090 C   0  0  0  0  0  0  0  0  0  0  0  0
    2.3245   -2.4254   10.7952 N   0  0  0  0  0  0  0  0  0  0  0  0
    3.9395   -1.8160   11.4645 C   0  0  0  0  0  0  0  0  0  0  0  0
    4.2067   -0.6191   11.3786 O   0  0  0  0  0  0  0  0  0  0  0  0
    5.4135   -2.7408   12.4832 C   0  0  0  0  0  0  0  0  0  0  0  0
    6.6293   -1.4211   12.0781 C   0  0  0  0  0  0  0  0  0  0  0  0
    7.5225   -0.7145   12.6684 N   0  0  0  0  0  0  0  0  0  0  0  0
    7.9301   -1.1197   13.8472 C   0  0  0  0  0  0  0  0  0  0  0  0
    8.7141   -0.5235   14.7167 N   0  0  0  0  0  0  0  0  0  0  0  0
    9.2100   -1.5975   15.3128 C   0  0  0  0  0  0  0  0  0  0  0  0
    8.3826   -2.6642   15.0066 C   0  0  0  0  0  0  0  0  0  0  0  0
    7.3227   -2.2107   14.3071 N   0  0  0  0  0  0  0  0  0  0  0  0
    6.0540   -2.6866   13.8522 C   0  0  0  0  0  0  0  0  0  0  0  0
   -6.2029   -0.9301    6.7365 C   0  0  0  0  0  0  0  0  0  0  0  0
   -7.1474   -0.2470    5.9337 C   0  0  0  0  0  0  0  0  0  0  0  0
   -8.0200   -1.0638    5.3374 N   0  0  0  0  0  0  0  0  0  0  0  0
   -7.6894   -2.2775    5.7970 N   0  0  0  0  0  0  0  0  0  0  0  0
   -6.5971   -2.2574    6.6203 C   0  0  0  0  0  0  0  0  0  0  0  0
   -4.3228   -2.1531    7.5122 H   0  0  0  0  0  0  0  0  0  0  0  0
   -3.5536   -0.4073    9.5813 H   0  0  0  0  0  0  0  0  0  0  0  0
   -3.1418   -2.2447    9.1344 H   0  0  0  0  0  0  0  0  0  0  0  0
   -1.5867    0.0154    8.9664 H   0  0  0  0  0  0  0  0  0  0  0  0
   -2.2244   -1.1040    7.2988 H   0  0  0  0  0  0  0  0  0  0  0  0
    1.3709   -0.6229    9.7124 H   0  0  0  0  0  0  0  0  0  0  0  0
    0.4083   -1.0286   10.9678 H   0  0  0  0  0  0  0  0  0  0  0  0
    2.3141   -3.4391   10.8739 H   0  0  0  0  0  0  0  0  0  0  0  0
    6.5191   -0.9993   11.0744 H   0  0  0  0  0  0  0  0  0  0  0  0
   10.1664   -1.5902   15.8188 H   0  0  0  0  0  0  0  0  0  0  0  0
    8.6230   -3.6995   15.0889 H   0  0  0  0  0  0  0  0  0  0  0  0
    5.4945   -2.9928   14.7248 H   0  0  0  0  0  0  0  0  0  0  0  0
   -7.2376    0.8203    5.7748 H   0  0  0  0  0  0  0  0  0  0  0  0
   -8.2571   -3.0727    5.5152 H   0  0  0  0  0  0  0  0  0  0  0  0
   -6.2474   -3.1752    7.0670 H   0  0  0  0  0  0  0  0  0  0  0  0
  1  2  2  0
  2  3  1  0
  3  4  1  0
  4  5  1  0
  5  6  1  0
  5  7  1  0
  7  8  1  0
  8  9  1  0
  9 10  2  0
  9 11  1  0
 11 12  1  0
 12 13  2  0
 13 14  1  0
 14 15  2  0
 15 16  1  0
 16 17  2  0
 17 18  1  0
 18 19  1  0
  2 20  1  0
 20 21  1  0
 21 22  2  0
 22 23  1  0
 23 24  1  0
 19 11  2  0
 24 20  2  0
 18 14  1  0
  3 25  1  0
  4 26  1  0
  4 27  1  0
  5 28  1  0
  6 29  1  0
  7 30  1  0
  7 31  1  0
  8 32  1  0
 12 33  1  0
 16 34  1  0
 17 35  1  0
 19 36  1  0
 21 37  1  0
 23 38  1  0
 24 39  1  0
M  END
>  <Energy>  (279) 
756.2789768563191

>  <compound_id>  (279) 
25642

>  <target_id>  (279) 
1

>  <reference_id>  (279) 
106

>  <inspiration_ids>  (279) 
[106, 99]

>  <energy_score>  (279) 
696.1304840249136

>  <distance_score>  (279) 
5.859142534382267

>  <path>  (279) 
/opt/xchem-fragalysis-2/maxwin/BulkDock/SCRATCH/511017/C25642-P106/C25642-P106.minimised.mol

>  <scratch_subdir>  (279) 
/opt/xchem-fragalysis-2/maxwin/BulkDock/SCRATCH/511017/C25642-P106

>  <fragmenstein_runtime>  (279) 
8.670454502105713

>  <fragmenstein_outcome>  (279) 
too moved

>  <fragmenstein_mode>  (279) 
expansion

>  <fragmenstein_error>  (279) 


$$$$
C25642-P99
     RDKit          3D

 39 41  0  0  0  0  0  0  0  0999 V2000
   -4.6569   -0.6962    8.1300 O   0  0  0  0  0  0  0  0  0  0  0  0
   -3.9746   -1.5597    7.6613 C   0  0  0  0  0  0  0  0  0  0  0  0
   -2.5794   -1.9090    7.9109 N   0  0  0  0  0  0  0  0  0  0  0  0
   -1.5501   -1.2425    8.7455 C   0  0  0  0  0  0  0  0  0  0  0  0
    0.3356   -1.1703    9.7165 C   0  0  0  0  0  0  0  0  0  0  0  0
   -0.3568   -1.1996   11.2178 O   0  0  0  0  0  0  0  0  0  0  0  0
    2.0595   -1.3155   10.9041 C   0  0  0  0  0  0  0  0  0  0  0  0
    3.9157   -0.4716   11.2115 N   0  0  0  0  0  0  0  0  0  0  0  0
    5.5467   -1.1762   12.0237 C   0  0  0  0  0  0  0  0  0  0  0  0
    5.5047   -2.3405   12.3067 O   0  0  0  0  0  0  0  0  0  0  0  0
    6.9277   -0.5494   12.5756 C   0  0  0  0  0  0  0  0  0  0  0  0
    7.1376   -1.4723   14.0026 C   0  0  0  0  0  0  0  0  0  0  0  0
    7.9426   -1.4200   15.0222 N   0  0  0  0  0  0  0  0  0  0  0  0
    8.9039   -0.4928   14.9760 C   0  0  0  0  0  0  0  0  0  0  0  0
    9.8819   -0.2341   15.8170 N   0  0  0  0  0  0  0  0  0  0  0  0
   10.6053    0.7604   15.2147 C   0  0  0  0  0  0  0  0  0  0  0  0
   10.0227    1.1591   14.0401 C   0  0  0  0  0  0  0  0  0  0  0  0
    8.9331    0.3360   13.8895 N   0  0  0  0  0  0  0  0  0  0  0  0
    8.0168    0.2533   12.7844 C   0  0  0  0  0  0  0  0  0  0  0  0
   -4.6414   -2.3124    6.5948 C   0  0  0  0  0  0  0  0  0  0  0  0
   -4.3909   -2.2679    5.2059 C   0  0  0  0  0  0  0  0  0  0  0  0
   -5.2971   -2.9246    4.4740 N   0  0  0  0  0  0  0  0  0  0  0  0
   -6.2143   -3.2988    5.3820 N   0  0  0  0  0  0  0  0  0  0  0  0
   -5.8941   -2.8995    6.6466 C   0  0  0  0  0  0  0  0  0  0  0  0
   -2.3533   -2.7482    7.3985 H   0  0  0  0  0  0  0  0  0  0  0  0
   -1.6154   -0.4307    8.0224 H   0  0  0  0  0  0  0  0  0  0  0  0
   -2.3632   -0.7852    9.2855 H   0  0  0  0  0  0  0  0  0  0  0  0
    0.4795   -1.9799    9.0704 H   0  0  0  0  0  0  0  0  0  0  0  0
   -1.3347   -1.1185   11.2002 H   0  0  0  0  0  0  0  0  0  0  0  0
    2.6312   -2.1893   10.8679 H   0  0  0  0  0  0  0  0  0  0  0  0
    1.5786   -1.0019   11.8413 H   0  0  0  0  0  0  0  0  0  0  0  0
    4.0925    0.5091   10.9314 H   0  0  0  0  0  0  0  0  0  0  0  0
    6.3372   -2.2010   14.1710 H   0  0  0  0  0  0  0  0  0  0  0  0
   11.5153    1.1516   15.6422 H   0  0  0  0  0  0  0  0  0  0  0  0
   10.3082    1.8987   13.3088 H   0  0  0  0  0  0  0  0  0  0  0  0
    8.3463    1.0114   12.1610 H   0  0  0  0  0  0  0  0  0  0  0  0
   -3.5931   -1.7457    4.6952 H   0  0  0  0  0  0  0  0  0  0  0  0
   -7.0464   -3.7930    5.0698 H   0  0  0  0  0  0  0  0  0  0  0  0
   -6.6082   -3.0257    7.4412 H   0  0  0  0  0  0  0  0  0  0  0  0
  1  2  2  0
  2  3  1  0
  3  4  1  0
  4  5  1  0
  5  6  1  0
  5  7  1  0
  7  8  1  0
  8  9  1  0
  9 10  2  0
  9 11  1  0
 11 12  1  0
 12 13  2  0
 13 14  1  0
 14 15  2  0
 15 16  1  0
 16 17  2  0
 17 18  1  0
 18 19  1  0
  2 20  1  0
 20 21  1  0
 21 22  2  0
 22 23  1  0
 23 24  1  0
 19 11  2  0
 24 20  2  0
 18 14  1  0
  3 25  1  0
  4 26  1  0
  4 27  1  0
  5 28  1  0
  6 29  1  0
  7 30  1  0
  7 31  1  0
  8 32  1  0
 12 33  1  0
 16 34  1  0
 17 35  1  0
 19 36  1  0
 21 37  1  0
 23 38  1  0
 24 39  1  0
M  END
>  <Energy>  (280) 
690.3882580572415

>  <compound_id>  (280) 
25642

>  <target_id>  (280) 
1

>  <reference_id>  (280) 
99

>  <inspiration_ids>  (280) 
[106, 99]

>  <energy_score>  (280) 
630.2397652258464

>  <distance_score>  (280) 
5.713353253457591

>  <path>  (280) 
/opt/xchem-fragalysis-2/maxwin/BulkDock/SCRATCH/511017/C25642-P99/C25642-P99.minimised.mol

>  <scratch_subdir>  (280) 
/opt/xchem-fragalysis-2/maxwin/BulkDock/SCRATCH/511017/C25642-P99

>  <fragmenstein_runtime>  (280) 
14.832279920578003

>  <fragmenstein_outcome>  (280) 
too moved

>  <fragmenstein_mode>  (280) 
expansion

>  <fragmenstein_error>  (280) 


$$$$
C25643-P106
     RDKit          3D

 41 43  0  0  0  0  0  0  0  0999 V2000
   -2.3532   -0.7020    7.5919 C   0  0  0  0  0  0  0  0  0  0  0  0
   -1.1291   -1.9477    6.8382 C   0  0  0  0  0  0  0  0  0  0  0  0
   -2.7647   -2.7957    7.7105 C   0  0  0  0  0  0  0  0  0  0  0  0
   -4.3953   -2.6547    7.2165 C   0  0  0  0  0  0  0  0  0  0  0  0
   -5.4505   -1.7079    7.6030 N   0  0  0  0  0  0  0  0  0  0  0  0
   -5.7997   -0.4180    7.0784 C   0  0  0  0  0  0  0  0  0  0  0  0
   -5.2712    0.2560    6.2449 O   0  0  0  0  0  0  0  0  0  0  0  0
   -7.0648    0.0367    7.6301 C   0  0  0  0  0  0  0  0  0  0  0  0
   -8.1369    0.5854    6.8897 C   0  0  0  0  0  0  0  0  0  0  0  0
   -9.2275    0.7840    7.6327 N   0  0  0  0  0  0  0  0  0  0  0  0
   -8.8538    0.3780    8.8555 N   0  0  0  0  0  0  0  0  0  0  0  0
   -7.5561   -0.0404    8.9122 C   0  0  0  0  0  0  0  0  0  0  0  0
    0.8245   -1.3697    7.0611 N   0  0  0  0  0  0  0  0  0  0  0  0
    2.2094   -1.5367    6.2325 C   0  0  0  0  0  0  0  0  0  0  0  0
    2.5463   -2.2002    5.2313 O   0  0  0  0  0  0  0  0  0  0  0  0
    3.1674   -0.0289    7.3370 C   0  0  0  0  0  0  0  0  0  0  0  0
    4.5587    0.8565    8.3862 C   0  0  0  0  0  0  0  0  0  0  0  0
    4.6701    1.6560    9.4111 N   0  0  0  0  0  0  0  0  0  0  0  0
    3.6138    2.3874    9.6253 C   0  0  0  0  0  0  0  0  0  0  0  0
    3.4058    3.3560   10.4816 N   0  0  0  0  0  0  0  0  0  0  0  0
    2.5318    4.1730    9.8363 C   0  0  0  0  0  0  0  0  0  0  0  0
    2.2048    3.6590    8.5996 C   0  0  0  0  0  0  0  0  0  0  0  0
    2.8156    2.4260    8.5367 N   0  0  0  0  0  0  0  0  0  0  0  0
    2.7671    1.4224    7.5170 C   0  0  0  0  0  0  0  0  0  0  0  0
   -3.1428   -0.6017    6.8565 H   0  0  0  0  0  0  0  0  0  0  0  0
   -1.9101    0.1997    7.9674 H   0  0  0  0  0  0  0  0  0  0  0  0
   -2.8462   -0.9121    8.5516 H   0  0  0  0  0  0  0  0  0  0  0  0
   -1.1556   -1.6876    7.9342 H   0  0  0  0  0  0  0  0  0  0  0  0
   -2.7911   -2.6467    8.7733 H   0  0  0  0  0  0  0  0  0  0  0  0
   -2.7535   -3.8584    7.4676 H   0  0  0  0  0  0  0  0  0  0  0  0
   -4.8132   -3.5789    7.6084 H   0  0  0  0  0  0  0  0  0  0  0  0
   -4.5888   -2.9834    6.2043 H   0  0  0  0  0  0  0  0  0  0  0  0
   -6.1717   -2.0099    8.2381 H   0  0  0  0  0  0  0  0  0  0  0  0
   -8.1698    0.8118    5.8306 H   0  0  0  0  0  0  0  0  0  0  0  0
   -9.5324    0.4284    9.6091 H   0  0  0  0  0  0  0  0  0  0  0  0
   -7.1165   -0.3553    9.8426 H   0  0  0  0  0  0  0  0  0  0  0  0
    0.9886   -0.8524    7.7946 H   0  0  0  0  0  0  0  0  0  0  0  0
    5.6400    0.6929    8.1214 H   0  0  0  0  0  0  0  0  0  0  0  0
    2.1916    5.0995   10.2805 H   0  0  0  0  0  0  0  0  0  0  0  0
    1.5726    4.0346    7.8081 H   0  0  0  0  0  0  0  0  0  0  0  0
    2.3516    1.9966    6.7124 H   0  0  0  0  0  0  0  0  0  0  0  0
  1  2  1  0
  2  3  1  0
  3  4  1  0
  4  5  1  0
  5  6  1  0
  6  7  2  0
  6  8  1  0
  8  9  1  0
  9 10  2  0
 10 11  1  0
 11 12  1  0
  2 13  1  0
 13 14  1  0
 14 15  2  0
 14 16  1  0
 16 17  1  0
 17 18  2  0
 18 19  1  0
 19 20  2  0
 20 21  1  0
 21 22  2  0
 22 23  1  0
 23 24  1  0
 12  8  2  0
 24 16  2  0
 23 19  1  0
  1 25  1  0
  1 26  1  0
  1 27  1  0
  2 28  1  0
  3 29  1  0
  3 30  1  0
  4 31  1  0
  4 32  1  0
  5 33  1  0
  9 34  1  0
 11 35  1  0
 12 36  1  0
 13 37  1  0
 17 38  1  0
 21 39  1  0
 22 40  1  0
 24 41  1  0
M  END
>  <Energy>  (281) 
706.17596516533297

>  <compound_id>  (281) 
25643

>  <target_id>  (281) 
1

>  <reference_id>  (281) 
106

>  <inspiration_ids>  (281) 
[106, 99]

>  <energy_score>  (281) 
678.7533475347084

>  <distance_score>  (281) 
9.578257691961943

>  <path>  (281) 
/opt/xchem-fragalysis-2/maxwin/BulkDock/SCRATCH/511017/C25643-P106/C25643-P106.minimised.mol

>  <scratch_subdir>  (281) 
/opt/xchem-fragalysis-2/maxwin/BulkDock/SCRATCH/511017/C25643-P106

>  <fragmenstein_runtime>  (281) 
13.739840984344482

>  <fragmenstein_outcome>  (281) 
too moved

>  <fragmenstein_mode>  (281) 
expansion

>  <fragmenstein_error>  (281) 


$$$$
C25643-P99
     RDKit          3D

 41 43  0  0  0  0  0  0  0  0999 V2000
    2.1725    2.1348    8.9353 C   0  0  0  0  0  0  0  0  0  0  0  0
    1.8068    0.5876    9.4249 C   0  0  0  0  0  0  0  0  0  0  0  0
    0.4966   -1.1126    9.4923 C   0  0  0  0  0  0  0  0  0  0  0  0
   -1.4467   -1.2220    8.6114 C   0  0  0  0  0  0  0  0  0  0  0  0
   -2.8056   -0.6338    8.5045 N   0  0  0  0  0  0  0  0  0  0  0  0
   -3.7707   -0.6746    7.4246 C   0  0  0  0  0  0  0  0  0  0  0  0
   -3.6836   -1.1202    6.3187 O   0  0  0  0  0  0  0  0  0  0  0  0
   -5.1062   -0.1914    7.7420 C   0  0  0  0  0  0  0  0  0  0  0  0
   -6.2544   -1.0292    7.7592 C   0  0  0  0  0  0  0  0  0  0  0  0
   -7.3895   -0.3619    7.9602 N   0  0  0  0  0  0  0  0  0  0  0  0
   -6.9937    0.9151    7.9824 N   0  0  0  0  0  0  0  0  0  0  0  0
   -5.6452    1.0714    7.7949 C   0  0  0  0  0  0  0  0  0  0  0  0
    2.9007    0.3412   10.9628 N   0  0  0  0  0  0  0  0  0  0  0  0
    4.6220   -0.0380   11.1335 C   0  0  0  0  0  0  0  0  0  0  0  0
    5.1552   -0.0430   10.1674 O   0  0  0  0  0  0  0  0  0  0  0  0
    5.8852   -0.6194   12.5257 C   0  0  0  0  0  0  0  0  0  0  0  0
    7.2540   -0.2698   11.9688 C   0  0  0  0  0  0  0  0  0  0  0  0
    8.2205    0.4474   12.5233 N   0  0  0  0  0  0  0  0  0  0  0  0
    8.5118    0.1202   13.8017 C   0  0  0  0  0  0  0  0  0  0  0  0
    9.4212    0.5857   14.6214 N   0  0  0  0  0  0  0  0  0  0  0  0
    9.0323    0.1191   15.8240 C   0  0  0  0  0  0  0  0  0  0  0  0
    7.9180   -0.6722   15.6704 C   0  0  0  0  0  0  0  0  0  0  0  0
    7.7221   -0.9001   14.3291 N   0  0  0  0  0  0  0  0  0  0  0  0
    6.4597   -1.3336   13.6347 C   0  0  0  0  0  0  0  0  0  0  0  0
    2.6257    2.1508    7.9345 H   0  0  0  0  0  0  0  0  0  0  0  0
    1.3539    2.8601    8.9453 H   0  0  0  0  0  0  0  0  0  0  0  0
    2.9536    2.5247    9.6012 H   0  0  0  0  0  0  0  0  0  0  0  0
    1.7250    0.4420    8.3589 H   0  0  0  0  0  0  0  0  0  0  0  0
    0.1622   -0.2738    9.3074 H   0  0  0  0  0  0  0  0  0  0  0  0
    0.3731   -1.3947   10.5701 H   0  0  0  0  0  0  0  0  0  0  0  0
   -1.9618   -2.1481    8.7808 H   0  0  0  0  0  0  0  0  0  0  0  0
   -1.4455   -1.2604    7.4910 H   0  0  0  0  0  0  0  0  0  0  0  0
   -3.2529   -0.2532    9.3354 H   0  0  0  0  0  0  0  0  0  0  0  0
   -6.2951   -2.1008    7.6136 H   0  0  0  0  0  0  0  0  0  0  0  0
   -7.7003    1.6348    8.1018 H   0  0  0  0  0  0  0  0  0  0  0  0
   -5.2231    2.0579    7.6977 H   0  0  0  0  0  0  0  0  0  0  0  0
    2.5075    0.4114   11.8865 H   0  0  0  0  0  0  0  0  0  0  0  0
    7.2626   -0.4416   10.8886 H   0  0  0  0  0  0  0  0  0  0  0  0
    9.4357    0.5512   16.7286 H   0  0  0  0  0  0  0  0  0  0  0  0
    7.0883   -0.7340   16.3360 H   0  0  0  0  0  0  0  0  0  0  0  0
    5.9288   -2.0463   14.2519 H   0  0  0  0  0  0  0  0  0  0  0  0
  1  2  1  0
  2  3  1  0
  3  4  1  0
  4  5  1  0
  5  6  1  0
  6  7  2  0
  6  8  1  0
  8  9  1  0
  9 10  2  0
 10 11  1  0
 11 12  1  0
  2 13  1  0
 13 14  1  0
 14 15  2  0
 14 16  1  0
 16 17  1  0
 17 18  2  0
 18 19  1  0
 19 20  2  0
 20 21  1  0
 21 22  2  0
 22 23  1  0
 23 24  1  0
 12  8  2  0
 24 16  2  0
 23 19  1  0
  1 25  1  0
  1 26  1  0
  1 27  1  0
  2 28  1  0
  3 29  1  0
  3 30  1  0
  4 31  1  0
  4 32  1  0
  5 33  1  0
  9 34  1  0
 11 35  1  0
 12 36  1  0
 13 37  1  0
 17 38  1  0
 21 39  1  0
 22 40  1  0
 24 41  1  0
M  END
>  <Energy>  (282) 
677.81195540208773

>  <compound_id>  (282) 
25643

>  <target_id>  (282) 
1

>  <reference_id>  (282) 
99

>  <inspiration_ids>  (282) 
[106, 99]

>  <energy_score>  (282) 
650.3893377714719

>  <distance_score>  (282) 
6.077770937290549

>  <path>  (282) 
/opt/xchem-fragalysis-2/maxwin/BulkDock/SCRATCH/511017/C25643-P99/C25643-P99.minimised.mol

>  <scratch_subdir>  (282) 
/opt/xchem-fragalysis-2/maxwin/BulkDock/SCRATCH/511017/C25643-P99

>  <fragmenstein_runtime>  (282) 
10.121379852294922

>  <fragmenstein_outcome>  (282) 
too moved

>  <fragmenstein_mode>  (282) 
expansion

>  <fragmenstein_error>  (282) 


$$$$
C25644-P106
     RDKit          3D

 42 44  0  0  0  0  0  0  0  0999 V2000
    4.2281   -0.7279   11.3931 O   0  0  0  0  0  0  0  0  0  0  0  0
    3.9198   -1.9198   11.4844 C   0  0  0  0  0  0  0  0  0  0  0  0
    2.3107   -2.5063   10.7756 N   0  0  0  0  0  0  0  0  0  0  0  0
    0.7019   -1.4829    9.9113 C   0  0  0  0  0  0  0  0  0  0  0  0
   -1.4013   -1.0612    9.1453 C   0  0  0  0  0  0  0  0  0  0  0  0
   -2.9227   -0.2004    8.2343 N   0  0  0  0  0  0  0  0  0  0  0  0
   -2.3709    0.8952    8.7904 C   0  0  0  0  0  0  0  0  0  0  0  0
   -3.1270    2.5348    8.6611 C   0  0  0  0  0  0  0  0  0  0  0  0
   -4.3264    2.7397    7.8700 O   0  0  0  0  0  0  0  0  0  0  0  0
   -4.1439   -0.8635    8.5301 C   0  0  0  0  0  0  0  0  0  0  0  0
   -4.9281   -0.6692    9.4001 O   0  0  0  0  0  0  0  0  0  0  0  0
   -4.6593   -1.8682    7.6241 C   0  0  0  0  0  0  0  0  0  0  0  0
   -4.4878   -3.1784    7.2006 C   0  0  0  0  0  0  0  0  0  0  0  0
   -5.5102   -3.6461    6.4698 N   0  0  0  0  0  0  0  0  0  0  0  0
   -6.4383   -2.7018    6.5392 N   0  0  0  0  0  0  0  0  0  0  0  0
   -5.9670   -1.5985    7.1594 C   0  0  0  0  0  0  0  0  0  0  0  0
    5.2886   -2.8530   12.5483 C   0  0  0  0  0  0  0  0  0  0  0  0
    6.7178   -1.9784   12.6342 C   0  0  0  0  0  0  0  0  0  0  0  0
    7.5619   -2.3308   13.8782 N   0  0  0  0  0  0  0  0  0  0  0  0
    8.8913   -2.2009   14.5266 C   0  0  0  0  0  0  0  0  0  0  0  0
    9.2999   -1.2074   15.3167 C   0  0  0  0  0  0  0  0  0  0  0  0
    8.1269   -0.6653   15.9090 C   0  0  0  0  0  0  0  0  0  0  0  0
    6.9812   -1.2463   15.7860 N   0  0  0  0  0  0  0  0  0  0  0  0
    6.6210   -2.1514   14.7716 C   0  0  0  0  0  0  0  0  0  0  0  0
    5.5035   -2.7362   14.3041 N   0  0  0  0  0  0  0  0  0  0  0  0
    2.2751   -3.5193   10.8703 H   0  0  0  0  0  0  0  0  0  0  0  0
    1.0198   -2.1129    9.0448 H   0  0  0  0  0  0  0  0  0  0  0  0
    1.2819   -0.5752    9.8677 H   0  0  0  0  0  0  0  0  0  0  0  0
   -2.1676   -1.8646    9.2265 H   0  0  0  0  0  0  0  0  0  0  0  0
   -1.3277   -1.4821    8.1039 H   0  0  0  0  0  0  0  0  0  0  0  0
   -2.6164    0.4936    9.7029 H   0  0  0  0  0  0  0  0  0  0  0  0
   -1.6440    0.9947    8.0953 H   0  0  0  0  0  0  0  0  0  0  0  0
   -2.3482    3.1843    8.2364 H   0  0  0  0  0  0  0  0  0  0  0  0
   -3.3679    3.0704    9.5532 H   0  0  0  0  0  0  0  0  0  0  0  0
   -4.5940    3.6720    8.0102 H   0  0  0  0  0  0  0  0  0  0  0  0
   -3.6825   -3.8565    7.4489 H   0  0  0  0  0  0  0  0  0  0  0  0
   -7.3507   -2.8711    6.1244 H   0  0  0  0  0  0  0  0  0  0  0  0
   -6.5929   -0.7271    7.2997 H   0  0  0  0  0  0  0  0  0  0  0  0
    7.1134   -1.2837   11.9097 H   0  0  0  0  0  0  0  0  0  0  0  0
    9.6948   -2.8815   14.2808 H   0  0  0  0  0  0  0  0  0  0  0  0
   10.2994   -1.0702   15.6960 H   0  0  0  0  0  0  0  0  0  0  0  0
    8.2582    0.1647   16.6216 H   0  0  0  0  0  0  0  0  0  0  0  0
  1  2  2  0
  2  3  1  0
  3  4  1  0
  4  5  1  0
  5  6  1  0
  6  7  1  0
  7  8  1  0
  8  9  1  0
  6 10  1  0
 10 11  2  0
 10 12  1  0
 12 13  1  0
 13 14  2  0
 14 15  1  0
 15 16  1  0
  2 17  1  0
 17 18  2  0
 18 19  1  0
 19 20  1  0
 20 21  2  0
 21 22  1  0
 22 23  2  0
 23 24  1  0
 24 25  2  0
 16 12  2  0
 25 17  1  0
 24 19  1  0
  3 26  1  0
  4 27  1  0
  4 28  1  0
  5 29  1  0
  5 30  1  0
  7 31  1  0
  7 32  1  0
  8 33  1  0
  8 34  1  0
  9 35  1  0
 13 36  1  0
 15 37  1  0
 16 38  1  0
 18 39  1  0
 20 40  1  0
 21 41  1  0
 22 42  1  0
M  END
>  <Energy>  (283) 
1032.5557791097053

>  <compound_id>  (283) 
25644

>  <target_id>  (283) 
1

>  <reference_id>  (283) 
106

>  <inspiration_ids>  (283) 
[106, 99]

>  <energy_score>  (283) 
938.0828730593789

>  <distance_score>  (283) 
5.000655170081846

>  <path>  (283) 
/opt/xchem-fragalysis-2/maxwin/BulkDock/SCRATCH/511017/C25644-P106/C25644-P106.minimised.mol

>  <scratch_subdir>  (283) 
/opt/xchem-fragalysis-2/maxwin/BulkDock/SCRATCH/511017/C25644-P106

>  <fragmenstein_runtime>  (283) 
7.829282999038696

>  <fragmenstein_outcome>  (283) 
too moved

>  <fragmenstein_mode>  (283) 
expansion

>  <fragmenstein_error>  (283) 


$$$$
C25644-P99
     RDKit          3D

 42 44  0  0  0  0  0  0  0  0999 V2000
    3.7630    0.8413   10.5289 O   0  0  0  0  0  0  0  0  0  0  0  0
    3.7102   -0.2312   11.1184 C   0  0  0  0  0  0  0  0  0  0  0  0
    2.0658   -1.3413   10.9398 N   0  0  0  0  0  0  0  0  0  0  0  0
    0.3748   -1.1173    9.7694 C   0  0  0  0  0  0  0  0  0  0  0  0
   -1.5154   -1.2568    8.6930 C   0  0  0  0  0  0  0  0  0  0  0  0
   -2.9264   -0.5839    7.5766 N   0  0  0  0  0  0  0  0  0  0  0  0
   -2.8005    0.4926    8.3945 C   0  0  0  0  0  0  0  0  0  0  0  0
   -4.2910    1.1699    7.9210 C   0  0  0  0  0  0  0  0  0  0  0  0
   -4.2311    2.5907    7.6533 O   0  0  0  0  0  0  0  0  0  0  0  0
   -3.9874   -1.5446    7.4703 C   0  0  0  0  0  0  0  0  0  0  0  0
   -4.9700   -1.6896    8.1373 O   0  0  0  0  0  0  0  0  0  0  0  0
   -4.0232   -2.4404    6.3423 C   0  0  0  0  0  0  0  0  0  0  0  0
   -3.8706   -1.9220    5.0114 C   0  0  0  0  0  0  0  0  0  0  0  0
   -4.6752   -2.4830    4.1014 N   0  0  0  0  0  0  0  0  0  0  0  0
   -5.4423   -3.2956    4.8343 N   0  0  0  0  0  0  0  0  0  0  0  0
   -5.1127   -3.2873    6.1567 C   0  0  0  0  0  0  0  0  0  0  0  0
    5.5139   -0.6321   12.0024 C   0  0  0  0  0  0  0  0  0  0  0  0
    6.1957   -1.4956   13.1223 C   0  0  0  0  0  0  0  0  0  0  0  0
    7.4224   -1.0576   13.4981 N   0  0  0  0  0  0  0  0  0  0  0  0
    8.1662   -1.2453   14.6676 C   0  0  0  0  0  0  0  0  0  0  0  0
    9.1714   -0.4045   14.9589 C   0  0  0  0  0  0  0  0  0  0  0  0
    9.3814    0.6728   13.9455 C   0  0  0  0  0  0  0  0  0  0  0  0
    8.7142    0.8323   12.8319 N   0  0  0  0  0  0  0  0  0  0  0  0
    7.6761   -0.0998   12.5650 C   0  0  0  0  0  0  0  0  0  0  0  0
    6.8896   -0.3700   11.5022 N   0  0  0  0  0  0  0  0  0  0  0  0
    2.2097   -2.1885   11.3962 H   0  0  0  0  0  0  0  0  0  0  0  0
   -0.0421   -1.3247   10.7875 H   0  0  0  0  0  0  0  0  0  0  0  0
    1.0116   -1.5440    9.0600 H   0  0  0  0  0  0  0  0  0  0  0  0
   -2.1993   -1.3480    9.4262 H   0  0  0  0  0  0  0  0  0  0  0  0
   -1.8718   -2.2079    8.3857 H   0  0  0  0  0  0  0  0  0  0  0  0
   -3.1452    0.3242    9.3983 H   0  0  0  0  0  0  0  0  0  0  0  0
   -2.2555    1.3178    8.0160 H   0  0  0  0  0  0  0  0  0  0  0  0
   -5.0992    0.8991    8.6067 H   0  0  0  0  0  0  0  0  0  0  0  0
   -4.6755    0.7410    6.9845 H   0  0  0  0  0  0  0  0  0  0  0  0
   -3.5252    2.9895    8.2091 H   0  0  0  0  0  0  0  0  0  0  0  0
   -3.2693   -1.0754    4.7058 H   0  0  0  0  0  0  0  0  0  0  0  0
   -6.2120   -3.7844    4.3875 H   0  0  0  0  0  0  0  0  0  0  0  0
   -5.8084   -3.7061    6.8686 H   0  0  0  0  0  0  0  0  0  0  0  0
    5.8219   -2.2261   13.8312 H   0  0  0  0  0  0  0  0  0  0  0  0
    7.8935   -2.0894   15.2689 H   0  0  0  0  0  0  0  0  0  0  0  0
    9.8321   -0.4767   15.8068 H   0  0  0  0  0  0  0  0  0  0  0  0
   10.1947    1.3802   14.1774 H   0  0  0  0  0  0  0  0  0  0  0  0
  1  2  2  0
  2  3  1  0
  3  4  1  0
  4  5  1  0
  5  6  1  0
  6  7  1  0
  7  8  1  0
  8  9  1  0
  6 10  1  0
 10 11  2  0
 10 12  1  0
 12 13  1  0
 13 14  2  0
 14 15  1  0
 15 16  1  0
  2 17  1  0
 17 18  2  0
 18 19  1  0
 19 20  1  0
 20 21  2  0
 21 22  1  0
 22 23  2  0
 23 24  1  0
 24 25  2  0
 16 12  2  0
 25 17  1  0
 24 19  1  0
  3 26  1  0
  4 27  1  0
  4 28  1  0
  5 29  1  0
  5 30  1  0
  7 31  1  0
  7 32  1  0
  8 33  1  0
  8 34  1  0
  9 35  1  0
 13 36  1  0
 15 37  1  0
 16 38  1  0
 18 39  1  0
 20 40  1  0
 21 41  1  0
 22 42  1  0
M  END
>  <Energy>  (284) 
906.10333793450502

>  <compound_id>  (284) 
25644

>  <target_id>  (284) 
1

>  <reference_id>  (284) 
99

>  <inspiration_ids>  (284) 
[106, 99]

>  <energy_score>  (284) 
811.6304318841815

>  <distance_score>  (284) 
5.047513485595121

>  <path>  (284) 
/opt/xchem-fragalysis-2/maxwin/BulkDock/SCRATCH/511017/C25644-P99/C25644-P99.minimised.mol

>  <scratch_subdir>  (284) 
/opt/xchem-fragalysis-2/maxwin/BulkDock/SCRATCH/511017/C25644-P99

>  <fragmenstein_runtime>  (284) 
11.800708293914795

>  <fragmenstein_outcome>  (284) 
too moved

>  <fragmenstein_mode>  (284) 
expansion

>  <fragmenstein_error>  (284) 


$$$$
C25645-P106
     RDKit          3D

 42 44  0  0  0  0  0  0  0  0999 V2000
    1.2063   -1.0465   10.6621 C   0  0  0  0  0  0  0  0  0  0  0  0
    2.0587   -0.1044    9.9540 N   0  0  0  0  0  0  0  0  0  0  0  0
    0.3416   -1.1715   10.0761 C   0  0  0  0  0  0  0  0  0  0  0  0
   -1.5406   -0.9068    9.0168 C   0  0  0  0  0  0  0  0  0  0  0  0
   -2.3279   -2.1198    8.5722 O   0  0  0  0  0  0  0  0  0  0  0  0
   -2.9069    0.0482    8.9864 C   0  0  0  0  0  0  0  0  0  0  0  0
   -4.0290   -0.5669    8.1801 N   0  0  0  0  0  0  0  0  0  0  0  0
   -5.3279   -0.0689    7.8445 C   0  0  0  0  0  0  0  0  0  0  0  0
   -5.8301    0.9952    8.0475 O   0  0  0  0  0  0  0  0  0  0  0  0
   -6.1989   -1.1017    7.2326 C   0  0  0  0  0  0  0  0  0  0  0  0
   -6.0008   -2.4699    6.9152 C   0  0  0  0  0  0  0  0  0  0  0  0
   -7.0899   -3.0798    6.4454 N   0  0  0  0  0  0  0  0  0  0  0  0
   -8.0248   -2.1209    6.4834 N   0  0  0  0  0  0  0  0  0  0  0  0
   -7.5400   -0.9243    6.9250 C   0  0  0  0  0  0  0  0  0  0  0  0
    3.5757    0.2192   11.0656 C   0  0  0  0  0  0  0  0  0  0  0  0
    3.3602    1.2145   11.7961 O   0  0  0  0  0  0  0  0  0  0  0  0
    5.3008   -0.6528   11.5329 C   0  0  0  0  0  0  0  0  0  0  0  0
    5.9938   -1.8501   12.4690 C   0  0  0  0  0  0  0  0  0  0  0  0
    7.1025   -1.5667   13.1403 N   0  0  0  0  0  0  0  0  0  0  0  0
    7.5894   -1.9159   14.4165 C   0  0  0  0  0  0  0  0  0  0  0  0
    8.6031   -1.2097   14.9560 C   0  0  0  0  0  0  0  0  0  0  0  0
    9.1342   -0.1234   14.0795 C   0  0  0  0  0  0  0  0  0  0  0  0
    8.6963    0.1571   12.8726 N   0  0  0  0  0  0  0  0  0  0  0  0
    7.6059   -0.6223   12.3416 C   0  0  0  0  0  0  0  0  0  0  0  0
    6.8566   -0.5870   11.1773 N   0  0  0  0  0  0  0  0  0  0  0  0
    2.0065   -1.0436   11.4531 H   0  0  0  0  0  0  0  0  0  0  0  0
    1.8528   -2.0289   10.4994 H   0  0  0  0  0  0  0  0  0  0  0  0
    0.8509   -0.8017   11.8524 H   0  0  0  0  0  0  0  0  0  0  0  0
    0.6727   -2.0922    9.3258 H   0  0  0  0  0  0  0  0  0  0  0  0
   -0.4659   -1.1798   10.9500 H   0  0  0  0  0  0  0  0  0  0  0  0
   -1.4405   -0.7525    7.9411 H   0  0  0  0  0  0  0  0  0  0  0  0
   -3.0766   -2.1206    9.1880 H   0  0  0  0  0  0  0  0  0  0  0  0
   -3.5076    0.0525    9.8696 H   0  0  0  0  0  0  0  0  0  0  0  0
   -2.7287    1.0842    8.7406 H   0  0  0  0  0  0  0  0  0  0  0  0
   -3.9148   -1.4876    7.7773 H   0  0  0  0  0  0  0  0  0  0  0  0
   -5.1046   -3.0690    7.0078 H   0  0  0  0  0  0  0  0  0  0  0  0
   -8.9721   -2.3551    6.1988 H   0  0  0  0  0  0  0  0  0  0  0  0
   -8.1837   -0.0603    7.0162 H   0  0  0  0  0  0  0  0  0  0  0  0
    5.4868   -2.7959   12.6715 H   0  0  0  0  0  0  0  0  0  0  0  0
    7.0705   -2.7059   14.9234 H   0  0  0  0  0  0  0  0  0  0  0  0
    9.0748   -1.3653   15.9038 H   0  0  0  0  0  0  0  0  0  0  0  0
    9.9742    0.4582   14.4937 H   0  0  0  0  0  0  0  0  0  0  0  0
  1  2  1  0
  2  3  1  0
  3  4  1  0
  4  5  1  0
  4  6  1  0
  6  7  1  0
  7  8  1  0
  8  9  2  0
  8 10  1  0
 10 11  1  0
 11 12  2  0
 12 13  1  0
 13 14  1  0
  2 15  1  0
 15 16  2  0
 15 17  1  0
 17 18  2  0
 18 19  1  0
 19 20  1  0
 20 21  2  0
 21 22  1  0
 22 23  2  0
 23 24  1  0
 24 25  2  0
 14 10  2  0
 25 17  1  0
 24 19  1  0
  1 26  1  0
  1 27  1  0
  1 28  1  0
  3 29  1  0
  3 30  1  0
  4 31  1  0
  5 32  1  0
  6 33  1  0
  6 34  1  0
  7 35  1  0
 11 36  1  0
 13 37  1  0
 14 38  1  0
 18 39  1  0
 20 40  1  0
 21 41  1  0
 22 42  1  0
M  END
>  <Energy>  (285) 
1178.5563854539987

>  <compound_id>  (285) 
25645

>  <target_id>  (285) 
1

>  <reference_id>  (285) 
106

>  <inspiration_ids>  (285) 
[106, 99]

>  <energy_score>  (285) 
1072.643273673994

>  <distance_score>  (285) 
5.25108196026848

>  <path>  (285) 
/opt/xchem-fragalysis-2/maxwin/BulkDock/SCRATCH/511017/C25645-P106/C25645-P106.minimised.mol

>  <scratch_subdir>  (285) 
/opt/xchem-fragalysis-2/maxwin/BulkDock/SCRATCH/511017/C25645-P106

>  <fragmenstein_runtime>  (285) 
11.147516012191772

>  <fragmenstein_outcome>  (285) 
too moved

>  <fragmenstein_mode>  (285) 
expansion

>  <fragmenstein_error>  (285) 


$$$$
C25645-P99
     RDKit          3D

 42 44  0  0  0  0  0  0  0  0999 V2000
    0.1976   -1.2581    9.4991 C   0  0  0  0  0  0  0  0  0  0  0  0
    0.2957   -1.5417   10.7367 N   0  0  0  0  0  0  0  0  0  0  0  0
   -0.9076   -1.2421    8.9779 C   0  0  0  0  0  0  0  0  0  0  0  0
   -2.4192   -0.5775    8.0533 C   0  0  0  0  0  0  0  0  0  0  0  0
   -2.9522    0.6914    8.3536 O   0  0  0  0  0  0  0  0  0  0  0  0
   -3.6225   -1.5764    7.9995 C   0  0  0  0  0  0  0  0  0  0  0  0
   -4.5268   -1.4553    6.8789 N   0  0  0  0  0  0  0  0  0  0  0  0
   -5.6189   -2.2785    6.4649 C   0  0  0  0  0  0  0  0  0  0  0  0
   -6.1129   -3.2314    6.9811 O   0  0  0  0  0  0  0  0  0  0  0  0
   -6.2092   -1.8753    5.1916 C   0  0  0  0  0  0  0  0  0  0  0  0
   -7.1367   -2.6544    4.4496 C   0  0  0  0  0  0  0  0  0  0  0  0
   -7.5187   -2.0653    3.3155 N   0  0  0  0  0  0  0  0  0  0  0  0
   -6.9009   -0.8780    3.3618 N   0  0  0  0  0  0  0  0  0  0  0  0
   -6.0818   -0.7224    4.4462 C   0  0  0  0  0  0  0  0  0  0  0  0
    2.0062   -1.4461   11.1722 C   0  0  0  0  0  0  0  0  0  0  0  0
    2.2837   -0.2725   11.5655 O   0  0  0  0  0  0  0  0  0  0  0  0
    3.5343   -2.6032   11.4168 C   0  0  0  0  0  0  0  0  0  0  0  0
    3.8084   -3.1108   12.7085 C   0  0  0  0  0  0  0  0  0  0  0  0
    5.5136   -2.5537   13.2694 N   0  0  0  0  0  0  0  0  0  0  0  0
    6.1135   -2.3162   14.4735 C   0  0  0  0  0  0  0  0  0  0  0  0
    7.2407   -1.6029   14.5319 C   0  0  0  0  0  0  0  0  0  0  0  0
    7.4684   -0.8947   13.2488 C   0  0  0  0  0  0  0  0  0  0  0  0
    6.8491   -1.0361   12.1148 N   0  0  0  0  0  0  0  0  0  0  0  0
    5.8363   -1.9129   12.1663 C   0  0  0  0  0  0  0  0  0  0  0  0
    5.0145   -2.8937   11.5713 N   0  0  0  0  0  0  0  0  0  0  0  0
    1.1855   -0.7939    9.2752 H   0  0  0  0  0  0  0  0  0  0  0  0
    0.5327   -2.1389    8.8812 H   0  0  0  0  0  0  0  0  0  0  0  0
   -0.3111   -0.9052   10.5729 H   0  0  0  0  0  0  0  0  0  0  0  0
   -1.5234   -2.0985    8.6146 H   0  0  0  0  0  0  0  0  0  0  0  0
   -1.8752   -1.3048    9.5540 H   0  0  0  0  0  0  0  0  0  0  0  0
   -2.0852   -0.5667    7.0200 H   0  0  0  0  0  0  0  0  0  0  0  0
   -3.9149    0.6694    8.2139 H   0  0  0  0  0  0  0  0  0  0  0  0
   -3.3026   -2.6184    7.9756 H   0  0  0  0  0  0  0  0  0  0  0  0
   -4.2598   -1.4167    8.8688 H   0  0  0  0  0  0  0  0  0  0  0  0
   -4.3268   -0.7822    6.1502 H   0  0  0  0  0  0  0  0  0  0  0  0
   -7.5316   -3.6322    4.7040 H   0  0  0  0  0  0  0  0  0  0  0  0
   -7.0785   -0.2191    2.6103 H   0  0  0  0  0  0  0  0  0  0  0  0
   -5.5253    0.1925    4.5838 H   0  0  0  0  0  0  0  0  0  0  0  0
    3.2152   -3.4559   13.5347 H   0  0  0  0  0  0  0  0  0  0  0  0
    5.5028   -2.8185   15.1815 H   0  0  0  0  0  0  0  0  0  0  0  0
    7.8385   -1.3553   15.3898 H   0  0  0  0  0  0  0  0  0  0  0  0
    8.1932   -0.0574   13.3489 H   0  0  0  0  0  0  0  0  0  0  0  0
  1  2  1  0
  2  3  1  0
  3  4  1  0
  4  5  1  0
  4  6  1  0
  6  7  1  0
  7  8  1  0
  8  9  2  0
  8 10  1  0
 10 11  1  0
 11 12  2  0
 12 13  1  0
 13 14  1  0
  2 15  1  0
 15 16  2  0
 15 17  1  0
 17 18  2  0
 18 19  1  0
 19 20  1  0
 20 21  2  0
 21 22  1  0
 22 23  2  0
 23 24  1  0
 24 25  2  0
 14 10  2  0
 25 17  1  0
 24 19  1  0
  1 26  1  0
  1 27  1  0
  1 28  1  0
  3 29  1  0
  3 30  1  0
  4 31  1  0
  5 32  1  0
  6 33  1  0
  6 34  1  0
  7 35  1  0
 11 36  1  0
 13 37  1  0
 14 38  1  0
 18 39  1  0
 20 40  1  0
 21 41  1  0
 22 42  1  0
M  END
>  <Energy>  (286) 
1274.1322452710053

>  <compound_id>  (286) 
25645

>  <target_id>  (286) 
1

>  <reference_id>  (286) 
99

>  <inspiration_ids>  (286) 
[106, 99]

>  <energy_score>  (286) 
1168.2191334910085

>  <distance_score>  (286) 
6.278439068423689

>  <path>  (286) 
/opt/xchem-fragalysis-2/maxwin/BulkDock/SCRATCH/511017/C25645-P99/C25645-P99.minimised.mol

>  <scratch_subdir>  (286) 
/opt/xchem-fragalysis-2/maxwin/BulkDock/SCRATCH/511017/C25645-P99

>  <fragmenstein_runtime>  (286) 
10.324759006500244

>  <fragmenstein_outcome>  (286) 
too moved

>  <fragmenstein_mode>  (286) 
expansion

>  <fragmenstein_error>  (286) 


$$$$
C25646-P106
     RDKit          3D

 39 41  0  0  0  0  0  0  0  0999 V2000
   -5.8416    0.8206    7.8384 O   0  0  0  0  0  0  0  0  0  0  0  0
   -5.3502   -0.2669    7.7800 C   0  0  0  0  0  0  0  0  0  0  0  0
   -4.1216   -0.7661    8.3192 N   0  0  0  0  0  0  0  0  0  0  0  0
   -3.1227   -0.1312    9.1978 C   0  0  0  0  0  0  0  0  0  0  0  0
   -1.4995   -0.8864    9.2840 C   0  0  0  0  0  0  0  0  0  0  0  0
   -1.9384   -1.8638    8.2543 O   0  0  0  0  0  0  0  0  0  0  0  0
    0.4546   -1.2585   10.1707 C   0  0  0  0  0  0  0  0  0  0  0  0
    2.0707   -1.3411   11.2398 N   0  0  0  0  0  0  0  0  0  0  0  0
    3.3226   -2.7892   11.5600 C   0  0  0  0  0  0  0  0  0  0  0  0
    3.0807   -3.8805   11.1148 O   0  0  0  0  0  0  0  0  0  0  0  0
    5.0763   -2.8245   12.4483 C   0  0  0  0  0  0  0  0  0  0  0  0
    5.7752   -2.8031   13.9226 C   0  0  0  0  0  0  0  0  0  0  0  0
    7.0190   -2.2006   14.0008 N   0  0  0  0  0  0  0  0  0  0  0  0
    7.9008   -2.2055   15.0445 C   0  0  0  0  0  0  0  0  0  0  0  0
    8.8933   -1.3260   15.2127 C   0  0  0  0  0  0  0  0  0  0  0  0
    8.8958   -0.2977   14.1730 C   0  0  0  0  0  0  0  0  0  0  0  0
    8.0916   -0.3064   13.1354 N   0  0  0  0  0  0  0  0  0  0  0  0
    7.1859   -1.3541   12.9762 C   0  0  0  0  0  0  0  0  0  0  0  0
    6.1999   -1.5336   12.1588 N   0  0  0  0  0  0  0  0  0  0  0  0
   -6.1805   -1.3072    7.1304 C   0  0  0  0  0  0  0  0  0  0  0  0
   -7.4858   -1.1084    6.6032 C   0  0  0  0  0  0  0  0  0  0  0  0
   -8.0319   -2.2161    6.0972 N   0  0  0  0  0  0  0  0  0  0  0  0
   -7.1054   -3.1542    6.3180 N   0  0  0  0  0  0  0  0  0  0  0  0
   -5.9679   -2.6553    6.8951 C   0  0  0  0  0  0  0  0  0  0  0  0
   -4.0648   -1.7581    8.1448 H   0  0  0  0  0  0  0  0  0  0  0  0
   -3.0447    0.9144    8.8924 H   0  0  0  0  0  0  0  0  0  0  0  0
   -3.7610   -0.1022   10.0648 H   0  0  0  0  0  0  0  0  0  0  0  0
   -1.4790   -0.0643    8.6084 H   0  0  0  0  0  0  0  0  0  0  0  0
   -1.5763   -1.5284    7.4273 H   0  0  0  0  0  0  0  0  0  0  0  0
    1.0312   -0.4073    9.8343 H   0  0  0  0  0  0  0  0  0  0  0  0
    0.8919   -1.9897    9.4724 H   0  0  0  0  0  0  0  0  0  0  0  0
    2.4672   -0.4762   11.6088 H   0  0  0  0  0  0  0  0  0  0  0  0
    5.3161   -3.0475   14.8646 H   0  0  0  0  0  0  0  0  0  0  0  0
    7.7003   -3.0615   15.6165 H   0  0  0  0  0  0  0  0  0  0  0  0
    9.6841   -1.3420   15.9385 H   0  0  0  0  0  0  0  0  0  0  0  0
    9.6485    0.5003   14.2810 H   0  0  0  0  0  0  0  0  0  0  0  0
   -8.0545   -0.1865    6.5785 H   0  0  0  0  0  0  0  0  0  0  0  0
   -7.3091   -4.1084    6.0305 H   0  0  0  0  0  0  0  0  0  0  0  0
   -5.1297   -3.3087    7.0785 H   0  0  0  0  0  0  0  0  0  0  0  0
  1  2  2  0
  2  3  1  0
  3  4  1  0
  4  5  1  0
  5  6  1  0
  5  7  1  0
  7  8  1  0
  8  9  1  0
  9 10  2  0
  9 11  1  0
 11 12  2  0
 12 13  1  0
 13 14  1  0
 14 15  2  0
 15 16  1  0
 16 17  2  0
 17 18  1  0
 18 19  2  0
  2 20  1  0
 20 21  1  0
 21 22  2  0
 22 23  1  0
 23 24  1  0
 19 11  1  0
 24 20  2  0
 18 13  1  0
  3 25  1  0
  4 26  1  0
  4 27  1  0
  5 28  1  0
  6 29  1  0
  7 30  1  0
  7 31  1  0
  8 32  1  0
 12 33  1  0
 14 34  1  0
 15 35  1  0
 16 36  1  0
 21 37  1  0
 23 38  1  0
 24 39  1  0
M  END
>  <Energy>  (287) 
689.71209375067883

>  <compound_id>  (287) 
25646

>  <target_id>  (287) 
1

>  <reference_id>  (287) 
106

>  <inspiration_ids>  (287) 
[106, 99]

>  <energy_score>  (287) 
607.8524839840754

>  <distance_score>  (287) 
5.15774536319621

>  <path>  (287) 
/opt/xchem-fragalysis-2/maxwin/BulkDock/SCRATCH/511017/C25646-P106/C25646-P106.minimised.mol

>  <scratch_subdir>  (287) 
/opt/xchem-fragalysis-2/maxwin/BulkDock/SCRATCH/511017/C25646-P106

>  <fragmenstein_runtime>  (287) 
13.129952907562256

>  <fragmenstein_outcome>  (287) 
too moved

>  <fragmenstein_mode>  (287) 
expansion

>  <fragmenstein_error>  (287) 


$$$$
C25646-P99
     RDKit          3D

 39 41  0  0  0  0  0  0  0  0999 V2000
   -3.1481   -1.4383    6.2164 O   0  0  0  0  0  0  0  0  0  0  0  0
   -3.7546   -1.6609    7.2188 C   0  0  0  0  0  0  0  0  0  0  0  0
   -3.3409   -1.6198    8.5902 N   0  0  0  0  0  0  0  0  0  0  0  0
   -2.0690   -1.1951    9.2029 C   0  0  0  0  0  0  0  0  0  0  0  0
   -0.9929   -1.2448   11.0450 C   0  0  0  0  0  0  0  0  0  0  0  0
    0.4137   -1.4217   10.2750 O   0  0  0  0  0  0  0  0  0  0  0  0
    0.0441   -1.0161   12.5583 C   0  0  0  0  0  0  0  0  0  0  0  0
    1.4098   -1.2622   13.0172 N   0  0  0  0  0  0  0  0  0  0  0  0
    2.4016   -2.9111   13.2372 C   0  0  0  0  0  0  0  0  0  0  0  0
    2.0343   -4.0716   13.1257 O   0  0  0  0  0  0  0  0  0  0  0  0
    3.9188   -2.8762   13.4637 C   0  0  0  0  0  0  0  0  0  0  0  0
    5.0392   -2.5983   14.6591 C   0  0  0  0  0  0  0  0  0  0  0  0
    6.2793   -2.0812   14.1969 N   0  0  0  0  0  0  0  0  0  0  0  0
    7.4712   -1.7523   14.8555 C   0  0  0  0  0  0  0  0  0  0  0  0
    8.2917   -0.7948   14.4566 C   0  0  0  0  0  0  0  0  0  0  0  0
    7.8502   -0.2608   13.1467 C   0  0  0  0  0  0  0  0  0  0  0  0
    6.9268   -0.7358   12.3605 N   0  0  0  0  0  0  0  0  0  0  0  0
    6.1604   -1.7393   12.8486 C   0  0  0  0  0  0  0  0  0  0  0  0
    5.1176   -2.6301   12.2666 N   0  0  0  0  0  0  0  0  0  0  0  0
   -5.1841   -1.9347    7.0485 C   0  0  0  0  0  0  0  0  0  0  0  0
   -5.7767   -2.6732    5.9959 C   0  0  0  0  0  0  0  0  0  0  0  0
   -7.1063   -2.7351    6.0829 N   0  0  0  0  0  0  0  0  0  0  0  0
   -7.3874   -1.9992    7.1674 N   0  0  0  0  0  0  0  0  0  0  0  0
   -6.2735   -1.4588    7.7552 C   0  0  0  0  0  0  0  0  0  0  0  0
   -4.1359   -1.7837    9.1757 H   0  0  0  0  0  0  0  0  0  0  0  0
   -2.5188   -0.1662    9.1012 H   0  0  0  0  0  0  0  0  0  0  0  0
   -1.4503   -1.2894    8.3657 H   0  0  0  0  0  0  0  0  0  0  0  0
   -1.3047   -0.3133   11.4407 H   0  0  0  0  0  0  0  0  0  0  0  0
    0.3668   -1.1933    9.3163 H   0  0  0  0  0  0  0  0  0  0  0  0
    0.7694   -0.6712   11.9036 H   0  0  0  0  0  0  0  0  0  0  0  0
   -0.1626   -0.0273   12.9713 H   0  0  0  0  0  0  0  0  0  0  0  0
    1.9860   -0.4727   13.0918 H   0  0  0  0  0  0  0  0  0  0  0  0
    4.8156   -2.8531   15.6786 H   0  0  0  0  0  0  0  0  0  0  0  0
    7.8015   -2.3497   15.6555 H   0  0  0  0  0  0  0  0  0  0  0  0
    9.2483   -0.5299   14.8778 H   0  0  0  0  0  0  0  0  0  0  0  0
    8.4459    0.6115   12.8218 H   0  0  0  0  0  0  0  0  0  0  0  0
   -5.2799   -3.1713    5.1730 H   0  0  0  0  0  0  0  0  0  0  0  0
   -8.3620   -1.8976    7.4391 H   0  0  0  0  0  0  0  0  0  0  0  0
   -6.3634   -0.7969    8.6034 H   0  0  0  0  0  0  0  0  0  0  0  0
  1  2  2  0
  2  3  1  0
  3  4  1  0
  4  5  1  0
  5  6  1  0
  5  7  1  0
  7  8  1  0
  8  9  1  0
  9 10  2  0
  9 11  1  0
 11 12  2  0
 12 13  1  0
 13 14  1  0
 14 15  2  0
 15 16  1  0
 16 17  2  0
 17 18  1  0
 18 19  2  0
  2 20  1  0
 20 21  1  0
 21 22  2  0
 22 23  1  0
 23 24  1  0
 19 11  1  0
 24 20  2  0
 18 13  1  0
  3 25  1  0
  4 26  1  0
  4 27  1  0
  5 28  1  0
  6 29  1  0
  7 30  1  0
  7 31  1  0
  8 32  1  0
 12 33  1  0
 14 34  1  0
 15 35  1  0
 16 36  1  0
 21 37  1  0
 23 38  1  0
 24 39  1  0
M  END
>  <Energy>  (288) 
607.07535445941016

>  <compound_id>  (288) 
25646

>  <target_id>  (288) 
1

>  <reference_id>  (288) 
99

>  <inspiration_ids>  (288) 
[106, 99]

>  <energy_score>  (288) 
525.2157446928142

>  <distance_score>  (288) 
5.9266717931988895

>  <path>  (288) 
/opt/xchem-fragalysis-2/maxwin/BulkDock/SCRATCH/511017/C25646-P99/C25646-P99.minimised.mol

>  <scratch_subdir>  (288) 
/opt/xchem-fragalysis-2/maxwin/BulkDock/SCRATCH/511017/C25646-P99

>  <fragmenstein_runtime>  (288) 
13.62767744064331

>  <fragmenstein_outcome>  (288) 
too moved

>  <fragmenstein_mode>  (288) 
expansion

>  <fragmenstein_error>  (288) 


$$$$
C25649-P106
     RDKit          3D

 42 45  0  0  0  0  0  0  0  0999 V2000
    3.2952    1.2341   11.1253 O   0  0  0  0  0  0  0  0  0  0  0  0
    3.3783    0.0168   11.2658 C   0  0  0  0  0  0  0  0  0  0  0  0
    1.9751   -1.2229   10.9549 N   0  0  0  0  0  0  0  0  0  0  0  0
    0.2446   -0.9871   10.2599 C   0  0  0  0  0  0  0  0  0  0  0  0
   -1.5769   -1.0612    9.0585 C   0  0  0  0  0  0  0  0  0  0  0  0
   -2.9990   -0.3415    8.1549 N   0  0  0  0  0  0  0  0  0  0  0  0
   -4.2984   -1.0629    8.3752 C   0  0  0  0  0  0  0  0  0  0  0  0
   -5.1354   -0.8698    9.2077 O   0  0  0  0  0  0  0  0  0  0  0  0
   -4.7608   -2.0553    7.4529 C   0  0  0  0  0  0  0  0  0  0  0  0
   -6.0868   -1.7246    6.9227 C   0  0  0  0  0  0  0  0  0  0  0  0
   -6.6826   -2.7148    6.2819 N   0  0  0  0  0  0  0  0  0  0  0  0
   -5.8303   -3.7110    6.4743 N   0  0  0  0  0  0  0  0  0  0  0  0
   -4.6403   -3.3556    7.0846 C   0  0  0  0  0  0  0  0  0  0  0  0
   -2.4776    0.7915    8.7767 C   0  0  0  0  0  0  0  0  0  0  0  0
   -3.0251    2.5179    8.8063 C   0  0  0  0  0  0  0  0  0  0  0  0
   -3.7974    1.3161    8.8580 C   0  0  0  0  0  0  0  0  0  0  0  0
    5.2382   -0.7435   11.7333 C   0  0  0  0  0  0  0  0  0  0  0  0
    6.7295   -0.6177   11.1895 C   0  0  0  0  0  0  0  0  0  0  0  0
    7.8145   -0.4160   11.9157 N   0  0  0  0  0  0  0  0  0  0  0  0
    7.9049   -0.7062   13.2021 C   0  0  0  0  0  0  0  0  0  0  0  0
    8.6298   -0.3220   14.2339 N   0  0  0  0  0  0  0  0  0  0  0  0
    8.3982   -1.2937   15.1607 C   0  0  0  0  0  0  0  0  0  0  0  0
    7.3904   -2.1343   14.7336 C   0  0  0  0  0  0  0  0  0  0  0  0
    7.0439   -1.6781   13.5051 N   0  0  0  0  0  0  0  0  0  0  0  0
    6.0535   -1.8427   12.5380 C   0  0  0  0  0  0  0  0  0  0  0  0
    2.3316   -2.1709   11.0556 H   0  0  0  0  0  0  0  0  0  0  0  0
    0.6692   -1.8481    9.7134 H   0  0  0  0  0  0  0  0  0  0  0  0
    0.8840   -0.2371    9.8150 H   0  0  0  0  0  0  0  0  0  0  0  0
   -1.3397   -1.4816    8.0692 H   0  0  0  0  0  0  0  0  0  0  0  0
   -2.2556   -1.9038    9.2128 H   0  0  0  0  0  0  0  0  0  0  0  0
   -6.6182   -0.7861    7.0374 H   0  0  0  0  0  0  0  0  0  0  0  0
   -6.1721   -4.6240    6.2006 H   0  0  0  0  0  0  0  0  0  0  0  0
   -3.8830   -4.0806    7.3396 H   0  0  0  0  0  0  0  0  0  0  0  0
   -1.7271    0.9731    8.0973 H   0  0  0  0  0  0  0  0  0  0  0  0
   -3.7514    3.2261    8.3685 H   0  0  0  0  0  0  0  0  0  0  0  0
   -2.2216    3.0359    8.2624 H   0  0  0  0  0  0  0  0  0  0  0  0
   -4.6585    1.2263    8.1771 H   0  0  0  0  0  0  0  0  0  0  0  0
   -4.0701    0.7399    9.7169 H   0  0  0  0  0  0  0  0  0  0  0  0
    6.8008   -0.5162   10.1278 H   0  0  0  0  0  0  0  0  0  0  0  0
    8.9663   -1.2849   16.0697 H   0  0  0  0  0  0  0  0  0  0  0  0
    6.8786   -2.9600   15.1561 H   0  0  0  0  0  0  0  0  0  0  0  0
    6.7455   -2.3494   11.8556 H   0  0  0  0  0  0  0  0  0  0  0  0
  1  2  2  0
  2  3  1  0
  3  4  1  0
  4  5  1  0
  5  6  1  0
  6  7  1  0
  7  8  2  0
  7  9  1  0
  9 10  1  0
 10 11  2  0
 11 12  1  0
 12 13  1  0
  6 14  1  0
 14 15  1  0
 15 16  1  0
  2 17  1  0
 17 18  1  0
 18 19  2  0
 19 20  1  0
 20 21  2  0
 21 22  1  0
 22 23  2  0
 23 24  1  0
 24 25  1  0
 13  9  2  0
 16 14  1  0
 25 17  2  0
 24 20  1  0
  3 26  1  0
  4 27  1  0
  4 28  1  0
  5 29  1  0
  5 30  1  0
 10 31  1  0
 12 32  1  0
 13 33  1  0
 14 34  1  0
 15 35  1  0
 15 36  1  0
 16 37  1  0
 16 38  1  0
 18 39  1  0
 22 40  1  0
 23 41  1  0
 25 42  1  0
M  END
>  <Energy>  (289) 
949.0742675010689

>  <compound_id>  (289) 
25649

>  <target_id>  (289) 
1

>  <reference_id>  (289) 
106

>  <inspiration_ids>  (289) 
[106, 99]

>  <energy_score>  (289) 
878.1125731553751

>  <distance_score>  (289) 
5.918288063905742

>  <path>  (289) 
/opt/xchem-fragalysis-2/maxwin/BulkDock/SCRATCH/511017/C25649-P106/C25649-P106.minimised.mol

>  <scratch_subdir>  (289) 
/opt/xchem-fragalysis-2/maxwin/BulkDock/SCRATCH/511017/C25649-P106

>  <fragmenstein_runtime>  (289) 
10.08519434928894

>  <fragmenstein_outcome>  (289) 
too moved

>  <fragmenstein_mode>  (289) 
expansion

>  <fragmenstein_error>  (289) 


$$$$
C25649-P99
     RDKit          3D

 42 45  0  0  0  0  0  0  0  0999 V2000
    3.6852   -3.6594   10.4628 O   0  0  0  0  0  0  0  0  0  0  0  0
    3.5732   -2.6353   11.1593 C   0  0  0  0  0  0  0  0  0  0  0  0
    2.0150   -1.4671   10.9360 N   0  0  0  0  0  0  0  0  0  0  0  0
    0.4647   -1.4741    9.5782 C   0  0  0  0  0  0  0  0  0  0  0  0
   -1.5681   -1.2631    8.7722 C   0  0  0  0  0  0  0  0  0  0  0  0
   -3.0098   -0.5754    7.6787 N   0  0  0  0  0  0  0  0  0  0  0  0
   -4.0151   -1.5849    7.4663 C   0  0  0  0  0  0  0  0  0  0  0  0
   -4.9991   -1.8428    8.0966 O   0  0  0  0  0  0  0  0  0  0  0  0
   -3.9791   -2.3786    6.2659 C   0  0  0  0  0  0  0  0  0  0  0  0
   -3.7954   -1.7642    4.9831 C   0  0  0  0  0  0  0  0  0  0  0  0
   -4.5508   -2.2847    4.0080 N   0  0  0  0  0  0  0  0  0  0  0  0
   -5.2950   -3.1919    4.6488 N   0  0  0  0  0  0  0  0  0  0  0  0
   -5.0207   -3.2554    5.9797 C   0  0  0  0  0  0  0  0  0  0  0  0
   -2.9590    0.4472    8.6030 C   0  0  0  0  0  0  0  0  0  0  0  0
   -3.2621    1.9027    8.1902 C   0  0  0  0  0  0  0  0  0  0  0  0
   -4.3927    1.0288    7.9706 C   0  0  0  0  0  0  0  0  0  0  0  0
    5.2822   -2.3956   12.2608 C   0  0  0  0  0  0  0  0  0  0  0  0
    6.4202   -1.1040   11.8564 C   0  0  0  0  0  0  0  0  0  0  0  0
    7.3457   -0.4113   12.4048 N   0  0  0  0  0  0  0  0  0  0  0  0
    7.8224   -0.7178   13.5932 C   0  0  0  0  0  0  0  0  0  0  0  0
    8.7715   -0.0467   14.2254 N   0  0  0  0  0  0  0  0  0  0  0  0
    8.6608   -0.4011   15.4915 C   0  0  0  0  0  0  0  0  0  0  0  0
    7.4596   -1.0454   15.5643 C   0  0  0  0  0  0  0  0  0  0  0  0
    7.0869   -1.5641   14.3195 N   0  0  0  0  0  0  0  0  0  0  0  0
    5.9202   -2.2781   13.7618 C   0  0  0  0  0  0  0  0  0  0  0  0
    2.1347   -0.6463   11.5178 H   0  0  0  0  0  0  0  0  0  0  0  0
    0.8363   -2.0620    8.6773 H   0  0  0  0  0  0  0  0  0  0  0  0
    1.0276   -0.6182    9.2158 H   0  0  0  0  0  0  0  0  0  0  0  0
   -1.4357   -1.4480    7.7064 H   0  0  0  0  0  0  0  0  0  0  0  0
   -2.2214   -2.0900    9.0214 H   0  0  0  0  0  0  0  0  0  0  0  0
   -3.2219   -0.8772    4.7559 H   0  0  0  0  0  0  0  0  0  0  0  0
   -6.0231   -3.6821    4.1388 H   0  0  0  0  0  0  0  0  0  0  0  0
   -5.7202   -3.7515    6.6378 H   0  0  0  0  0  0  0  0  0  0  0  0
   -3.3049    0.1245    9.5706 H   0  0  0  0  0  0  0  0  0  0  0  0
   -2.4077    2.3034    7.7148 H   0  0  0  0  0  0  0  0  0  0  0  0
   -3.5602    2.8948    8.5278 H   0  0  0  0  0  0  0  0  0  0  0  0
   -5.2665    0.8900    8.5998 H   0  0  0  0  0  0  0  0  0  0  0  0
   -4.7320    0.8249    6.9563 H   0  0  0  0  0  0  0  0  0  0  0  0
    6.3851   -0.6819   10.8555 H   0  0  0  0  0  0  0  0  0  0  0  0
    9.2307    0.0951   16.2639 H   0  0  0  0  0  0  0  0  0  0  0  0
    6.7556   -0.7682   16.3264 H   0  0  0  0  0  0  0  0  0  0  0  0
    5.3191   -2.5945   14.6097 H   0  0  0  0  0  0  0  0  0  0  0  0
  1  2  2  0
  2  3  1  0
  3  4  1  0
  4  5  1  0
  5  6  1  0
  6  7  1  0
  7  8  2  0
  7  9  1  0
  9 10  1  0
 10 11  2  0
 11 12  1  0
 12 13  1  0
  6 14  1  0
 14 15  1  0
 15 16  1  0
  2 17  1  0
 17 18  1  0
 18 19  2  0
 19 20  1  0
 20 21  2  0
 21 22  1  0
 22 23  2  0
 23 24  1  0
 24 25  1  0
 13  9  2  0
 16 14  1  0
 25 17  2  0
 24 20  1  0
  3 26  1  0
  4 27  1  0
  4 28  1  0
  5 29  1  0
  5 30  1  0
 10 31  1  0
 12 32  1  0
 13 33  1  0
 14 34  1  0
 15 35  1  0
 15 36  1  0
 16 37  1  0
 16 38  1  0
 18 39  1  0
 22 40  1  0
 23 41  1  0
 25 42  1  0
M  END
>  <Energy>  (290) 
918.34051854474353

>  <compound_id>  (290) 
25649

>  <target_id>  (290) 
1

>  <reference_id>  (290) 
99

>  <inspiration_ids>  (290) 
[106, 99]

>  <energy_score>  (290) 
847.3788241990585

>  <distance_score>  (290) 
5.9778648476643195

>  <path>  (290) 
/opt/xchem-fragalysis-2/maxwin/BulkDock/SCRATCH/511017/C25649-P99/C25649-P99.minimised.mol

>  <scratch_subdir>  (290) 
/opt/xchem-fragalysis-2/maxwin/BulkDock/SCRATCH/511017/C25649-P99

>  <fragmenstein_runtime>  (290) 
8.999017715454102

>  <fragmenstein_outcome>  (290) 
too moved

>  <fragmenstein_mode>  (290) 
expansion

>  <fragmenstein_error>  (290) 


$$$$
C25651-P106
     RDKit          3D

 41 43  0  0  0  0  0  0  0  0999 V2000
   -1.5448   -1.5795    8.5075 C   0  0  0  0  0  0  0  0  0  0  0  0
   -0.1875   -0.9995    9.9834 C   0  0  0  0  0  0  0  0  0  0  0  0
   -1.9176   -0.1291    9.1034 C   0  0  0  0  0  0  0  0  0  0  0  0
   -3.6969   -0.4756    9.1080 C   0  0  0  0  0  0  0  0  0  0  0  0
   -4.6938   -0.0829    8.1526 N   0  0  0  0  0  0  0  0  0  0  0  0
   -5.6014   -0.8661    7.3695 C   0  0  0  0  0  0  0  0  0  0  0  0
   -5.7064   -2.0488    7.2508 O   0  0  0  0  0  0  0  0  0  0  0  0
   -6.6204   -0.0714    6.6848 C   0  0  0  0  0  0  0  0  0  0  0  0
   -7.4805   -0.5521    5.6617 C   0  0  0  0  0  0  0  0  0  0  0  0
   -8.3830    0.3505    5.2764 N   0  0  0  0  0  0  0  0  0  0  0  0
   -8.1446    1.3917    6.0812 N   0  0  0  0  0  0  0  0  0  0  0  0
   -7.0851    1.2056    6.9268 C   0  0  0  0  0  0  0  0  0  0  0  0
    1.6707   -1.1097   10.5836 N   0  0  0  0  0  0  0  0  0  0  0  0
    3.0523    0.2334   10.8376 C   0  0  0  0  0  0  0  0  0  0  0  0
    2.9934    1.4525   10.7424 O   0  0  0  0  0  0  0  0  0  0  0  0
    4.8535   -0.4834   11.1673 C   0  0  0  0  0  0  0  0  0  0  0  0
    5.6495   -0.8828   12.2845 C   0  0  0  0  0  0  0  0  0  0  0  0
    6.7396   -1.6374   12.6063 N   0  0  0  0  0  0  0  0  0  0  0  0
    7.1098   -2.0393   13.9423 C   0  0  0  0  0  0  0  0  0  0  0  0
    8.1222   -1.4575   14.6137 C   0  0  0  0  0  0  0  0  0  0  0  0
    8.7253   -0.3164   13.8552 C   0  0  0  0  0  0  0  0  0  0  0  0
    8.4102   -0.0052   12.6082 N   0  0  0  0  0  0  0  0  0  0  0  0
    7.4256   -0.8020   11.8409 C   0  0  0  0  0  0  0  0  0  0  0  0
    6.5471   -0.5814   10.7015 N   0  0  0  0  0  0  0  0  0  0  0  0
   -1.3878   -1.3061    7.4648 H   0  0  0  0  0  0  0  0  0  0  0  0
   -2.3900   -1.9711    9.0537 H   0  0  0  0  0  0  0  0  0  0  0  0
   -2.0067   -2.4642    8.0593 H   0  0  0  0  0  0  0  0  0  0  0  0
    0.4807   -1.8621    9.5104 H   0  0  0  0  0  0  0  0  0  0  0  0
   -2.1814    0.8897    9.2940 H   0  0  0  0  0  0  0  0  0  0  0  0
   -1.8337    0.2323    8.0699 H   0  0  0  0  0  0  0  0  0  0  0  0
   -4.0777   -0.0874   10.0278 H   0  0  0  0  0  0  0  0  0  0  0  0
   -3.9474   -1.5220    9.1207 H   0  0  0  0  0  0  0  0  0  0  0  0
   -4.9464    0.8846    8.0745 H   0  0  0  0  0  0  0  0  0  0  0  0
   -7.4810   -1.5321    5.1987 H   0  0  0  0  0  0  0  0  0  0  0  0
   -8.7499    2.2025    6.0019 H   0  0  0  0  0  0  0  0  0  0  0  0
   -6.8235    1.9684    7.6444 H   0  0  0  0  0  0  0  0  0  0  0  0
    2.0494   -2.0419   10.6529 H   0  0  0  0  0  0  0  0  0  0  0  0
    5.5673   -0.2961   13.1034 H   0  0  0  0  0  0  0  0  0  0  0  0
    6.4443   -2.7424   14.4149 H   0  0  0  0  0  0  0  0  0  0  0  0
    8.4425   -1.6488   15.6147 H   0  0  0  0  0  0  0  0  0  0  0  0
    9.4932    0.2683   14.3889 H   0  0  0  0  0  0  0  0  0  0  0  0
  1  2  1  0
  2  3  1  0
  3  4  1  0
  4  5  1  0
  5  6  1  0
  6  7  2  0
  6  8  1  0
  8  9  1  0
  9 10  2  0
 10 11  1  0
 11 12  1  0
  2 13  1  0
 13 14  1  0
 14 15  2  0
 14 16  1  0
 16 17  2  0
 17 18  1  0
 18 19  1  0
 19 20  2  0
 20 21  1  0
 21 22  2  0
 22 23  1  0
 23 24  2  0
 12  8  2  0
 24 16  1  0
 23 18  1  0
  1 25  1  0
  1 26  1  0
  1 27  1  0
  2 28  1  0
  3 29  1  0
  3 30  1  0
  4 31  1  0
  4 32  1  0
  5 33  1  0
  9 34  1  0
 11 35  1  0
 12 36  1  0
 13 37  1  0
 17 38  1  0
 19 39  1  0
 20 40  1  0
 21 41  1  0
M  END
>  <Energy>  (291) 
1051.7212181234208

>  <compound_id>  (291) 
25651

>  <target_id>  (291) 
1

>  <reference_id>  (291) 
106

>  <inspiration_ids>  (291) 
[106, 99]

>  <energy_score>  (291) 
1007.8962859915425

>  <distance_score>  (291) 
5.688411714757341

>  <path>  (291) 
/opt/xchem-fragalysis-2/maxwin/BulkDock/SCRATCH/511017/C25651-P106/C25651-P106.minimised.mol

>  <scratch_subdir>  (291) 
/opt/xchem-fragalysis-2/maxwin/BulkDock/SCRATCH/511017/C25651-P106

>  <fragmenstein_runtime>  (291) 
13.297322273254395

>  <fragmenstein_outcome>  (291) 
too moved

>  <fragmenstein_mode>  (291) 
expansion

>  <fragmenstein_error>  (291) 


$$$$
C25651-P99
     RDKit          3D

 41 43  0  0  0  0  0  0  0  0999 V2000
   -2.5974    0.3539    8.3461 C   0  0  0  0  0  0  0  0  0  0  0  0
   -1.3084   -0.9220    8.5812 C   0  0  0  0  0  0  0  0  0  0  0  0
   -2.7963   -1.9730    8.4717 C   0  0  0  0  0  0  0  0  0  0  0  0
   -3.4594   -2.2455    7.0867 C   0  0  0  0  0  0  0  0  0  0  0  0
   -4.8961   -2.3829    7.1099 N   0  0  0  0  0  0  0  0  0  0  0  0
   -5.9327   -1.4119    6.9793 C   0  0  0  0  0  0  0  0  0  0  0  0
   -5.8807   -0.2221    6.8950 O   0  0  0  0  0  0  0  0  0  0  0  0
   -7.2299   -2.0951    7.0253 C   0  0  0  0  0  0  0  0  0  0  0  0
   -7.6161   -3.3377    6.4632 C   0  0  0  0  0  0  0  0  0  0  0  0
   -8.8274   -3.7307    6.8541 N   0  0  0  0  0  0  0  0  0  0  0  0
   -9.2583   -2.7161    7.6253 N   0  0  0  0  0  0  0  0  0  0  0  0
   -8.3594   -1.6882    7.7070 C   0  0  0  0  0  0  0  0  0  0  0  0
    0.6210   -0.9465    9.5324 N   0  0  0  0  0  0  0  0  0  0  0  0
    2.1458    0.4512    9.6581 C   0  0  0  0  0  0  0  0  0  0  0  0
    2.0618    1.5339    9.0268 O   0  0  0  0  0  0  0  0  0  0  0  0
    4.0574    0.3073   10.5892 C   0  0  0  0  0  0  0  0  0  0  0  0
    5.1284   -0.4509   11.7937 C   0  0  0  0  0  0  0  0  0  0  0  0
    6.3290   -1.1623   12.1289 N   0  0  0  0  0  0  0  0  0  0  0  0
    6.7529   -1.5216   13.4913 C   0  0  0  0  0  0  0  0  0  0  0  0
    7.8172   -0.9984   14.1118 C   0  0  0  0  0  0  0  0  0  0  0  0
    8.3174    0.1536   13.3072 C   0  0  0  0  0  0  0  0  0  0  0  0
    8.0027    0.3662   12.0420 N   0  0  0  0  0  0  0  0  0  0  0  0
    7.0239   -0.4378   11.2627 C   0  0  0  0  0  0  0  0  0  0  0  0
    5.9178   -0.1071   10.1757 N   0  0  0  0  0  0  0  0  0  0  0  0
   -3.2948    0.3768    9.1842 H   0  0  0  0  0  0  0  0  0  0  0  0
   -3.2125    0.0684    7.4931 H   0  0  0  0  0  0  0  0  0  0  0  0
   -2.3557    1.3675    8.0620 H   0  0  0  0  0  0  0  0  0  0  0  0
   -1.3446   -1.1206    7.4490 H   0  0  0  0  0  0  0  0  0  0  0  0
   -2.8030   -2.9464    8.8773 H   0  0  0  0  0  0  0  0  0  0  0  0
   -3.6266   -1.4847    8.9838 H   0  0  0  0  0  0  0  0  0  0  0  0
   -3.2014   -3.2734    6.8525 H   0  0  0  0  0  0  0  0  0  0  0  0
   -3.1790   -1.5541    6.2908 H   0  0  0  0  0  0  0  0  0  0  0  0
   -5.3138   -3.2957    7.2377 H   0  0  0  0  0  0  0  0  0  0  0  0
   -7.0498   -3.9949    5.8153 H   0  0  0  0  0  0  0  0  0  0  0  0
  -10.1553   -2.8136    8.1036 H   0  0  0  0  0  0  0  0  0  0  0  0
   -8.5672   -0.8084    8.2990 H   0  0  0  0  0  0  0  0  0  0  0  0
    0.8084   -1.6775   10.1456 H   0  0  0  0  0  0  0  0  0  0  0  0
    5.3653    0.2151   12.5961 H   0  0  0  0  0  0  0  0  0  0  0  0
    6.1263   -2.2197   14.0251 H   0  0  0  0  0  0  0  0  0  0  0  0
    8.1844   -1.2147   15.0983 H   0  0  0  0  0  0  0  0  0  0  0  0
    9.0575    0.8049   13.8052 H   0  0  0  0  0  0  0  0  0  0  0  0
  1  2  1  0
  2  3  1  0
  3  4  1  0
  4  5  1  0
  5  6  1  0
  6  7  2  0
  6  8  1  0
  8  9  1  0
  9 10  2  0
 10 11  1  0
 11 12  1  0
  2 13  1  0
 13 14  1  0
 14 15  2  0
 14 16  1  0
 16 17  2  0
 17 18  1  0
 18 19  1  0
 19 20  2  0
 20 21  1  0
 21 22  2  0
 22 23  1  0
 23 24  2  0
 12  8  2  0
 24 16  1  0
 23 18  1  0
  1 25  1  0
  1 26  1  0
  1 27  1  0
  2 28  1  0
  3 29  1  0
  3 30  1  0
  4 31  1  0
  4 32  1  0
  5 33  1  0
  9 34  1  0
 11 35  1  0
 12 36  1  0
 13 37  1  0
 17 38  1  0
 19 39  1  0
 20 40  1  0
 21 41  1  0
M  END
>  <Energy>  (292) 
1085.3924717842851

>  <compound_id>  (292) 
25651

>  <target_id>  (292) 
1

>  <reference_id>  (292) 
99

>  <inspiration_ids>  (292) 
[106, 99]

>  <energy_score>  (292) 
1041.567539652417

>  <distance_score>  (292) 
5.592235404768879

>  <path>  (292) 
/opt/xchem-fragalysis-2/maxwin/BulkDock/SCRATCH/511017/C25651-P99/C25651-P99.minimised.mol

>  <scratch_subdir>  (292) 
/opt/xchem-fragalysis-2/maxwin/BulkDock/SCRATCH/511017/C25651-P99

>  <fragmenstein_runtime>  (292) 
10.405871391296387

>  <fragmenstein_outcome>  (292) 
too moved

>  <fragmenstein_mode>  (292) 
expansion

>  <fragmenstein_error>  (292) 


$$$$
C25649-P106
     RDKit          3D

 42 45  0  0  0  0  0  0  0  0999 V2000
    3.2952    1.2341   11.1253 O   0  0  0  0  0  0  0  0  0  0  0  0
    3.3783    0.0168   11.2658 C   0  0  0  0  0  0  0  0  0  0  0  0
    1.9751   -1.2229   10.9549 N   0  0  0  0  0  0  0  0  0  0  0  0
    0.2446   -0.9871   10.2599 C   0  0  0  0  0  0  0  0  0  0  0  0
   -1.5769   -1.0612    9.0585 C   0  0  0  0  0  0  0  0  0  0  0  0
   -2.9990   -0.3415    8.1549 N   0  0  0  0  0  0  0  0  0  0  0  0
   -4.2984   -1.0629    8.3752 C   0  0  0  0  0  0  0  0  0  0  0  0
   -5.1354   -0.8698    9.2077 O   0  0  0  0  0  0  0  0  0  0  0  0
   -4.7608   -2.0553    7.4529 C   0  0  0  0  0  0  0  0  0  0  0  0
   -6.0868   -1.7246    6.9227 C   0  0  0  0  0  0  0  0  0  0  0  0
   -6.6826   -2.7148    6.2819 N   0  0  0  0  0  0  0  0  0  0  0  0
   -5.8303   -3.7110    6.4743 N   0  0  0  0  0  0  0  0  0  0  0  0
   -4.6403   -3.3556    7.0846 C   0  0  0  0  0  0  0  0  0  0  0  0
   -2.4776    0.7915    8.7767 C   0  0  0  0  0  0  0  0  0  0  0  0
   -3.0251    2.5179    8.8063 C   0  0  0  0  0  0  0  0  0  0  0  0
   -3.7974    1.3161    8.8580 C   0  0  0  0  0  0  0  0  0  0  0  0
    5.2382   -0.7435   11.7333 C   0  0  0  0  0  0  0  0  0  0  0  0
    6.7295   -0.6177   11.1895 C   0  0  0  0  0  0  0  0  0  0  0  0
    7.8145   -0.4160   11.9157 N   0  0  0  0  0  0  0  0  0  0  0  0
    7.9049   -0.7062   13.2021 C   0  0  0  0  0  0  0  0  0  0  0  0
    8.6298   -0.3220   14.2339 N   0  0  0  0  0  0  0  0  0  0  0  0
    8.3982   -1.2937   15.1607 C   0  0  0  0  0  0  0  0  0  0  0  0
    7.3904   -2.1343   14.7336 C   0  0  0  0  0  0  0  0  0  0  0  0
    7.0439   -1.6781   13.5051 N   0  0  0  0  0  0  0  0  0  0  0  0
    6.0535   -1.8427   12.5380 C   0  0  0  0  0  0  0  0  0  0  0  0
    2.3316   -2.1709   11.0556 H   0  0  0  0  0  0  0  0  0  0  0  0
    0.6692   -1.8481    9.7134 H   0  0  0  0  0  0  0  0  0  0  0  0
    0.8840   -0.2371    9.8150 H   0  0  0  0  0  0  0  0  0  0  0  0
   -1.3397   -1.4816    8.0692 H   0  0  0  0  0  0  0  0  0  0  0  0
   -2.2556   -1.9038    9.2128 H   0  0  0  0  0  0  0  0  0  0  0  0
   -6.6182   -0.7861    7.0374 H   0  0  0  0  0  0  0  0  0  0  0  0
   -6.1721   -4.6240    6.2006 H   0  0  0  0  0  0  0  0  0  0  0  0
   -3.8830   -4.0806    7.3396 H   0  0  0  0  0  0  0  0  0  0  0  0
   -1.7271    0.9731    8.0973 H   0  0  0  0  0  0  0  0  0  0  0  0
   -3.7514    3.2261    8.3685 H   0  0  0  0  0  0  0  0  0  0  0  0
   -2.2216    3.0359    8.2624 H   0  0  0  0  0  0  0  0  0  0  0  0
   -4.6585    1.2263    8.1771 H   0  0  0  0  0  0  0  0  0  0  0  0
   -4.0701    0.7399    9.7169 H   0  0  0  0  0  0  0  0  0  0  0  0
    6.8008   -0.5162   10.1278 H   0  0  0  0  0  0  0  0  0  0  0  0
    8.9663   -1.2849   16.0697 H   0  0  0  0  0  0  0  0  0  0  0  0
    6.8786   -2.9600   15.1561 H   0  0  0  0  0  0  0  0  0  0  0  0
    6.7455   -2.3494   11.8556 H   0  0  0  0  0  0  0  0  0  0  0  0
  1  2  2  0
  2  3  1  0
  3  4  1  0
  4  5  1  0
  5  6  1  0
  6  7  1  0
  7  8  2  0
  7  9  1  0
  9 10  1  0
 10 11  2  0
 11 12  1  0
 12 13  1  0
  6 14  1  0
 14 15  1  0
 15 16  1  0
  2 17  1  0
 17 18  1  0
 18 19  2  0
 19 20  1  0
 20 21  2  0
 21 22  1  0
 22 23  2  0
 23 24  1  0
 24 25  1  0
 13  9  2  0
 16 14  1  0
 25 17  2  0
 24 20  1  0
  3 26  1  0
  4 27  1  0
  4 28  1  0
  5 29  1  0
  5 30  1  0
 10 31  1  0
 12 32  1  0
 13 33  1  0
 14 34  1  0
 15 35  1  0
 15 36  1  0
 16 37  1  0
 16 38  1  0
 18 39  1  0
 22 40  1  0
 23 41  1  0
 25 42  1  0
M  END
>  <Energy>  (293) 
949.0742675010689

>  <compound_id>  (293) 
25649

>  <target_id>  (293) 
1

>  <reference_id>  (293) 
106

>  <inspiration_ids>  (293) 
[106, 99]

>  <energy_score>  (293) 
878.1125731553751

>  <distance_score>  (293) 
5.918288063905742

>  <path>  (293) 
/opt/xchem-fragalysis-2/maxwin/BulkDock/SCRATCH/511017/C25649-P106/C25649-P106.minimised.mol

>  <scratch_subdir>  (293) 
/opt/xchem-fragalysis-2/maxwin/BulkDock/SCRATCH/511017/C25649-P106

>  <fragmenstein_runtime>  (293) 
9.804655075073242

>  <fragmenstein_outcome>  (293) 
too moved

>  <fragmenstein_mode>  (293) 
expansion

>  <fragmenstein_error>  (293) 


$$$$
C25649-P99
     RDKit          3D

 42 45  0  0  0  0  0  0  0  0999 V2000
    3.6852   -3.6594   10.4628 O   0  0  0  0  0  0  0  0  0  0  0  0
    3.5732   -2.6353   11.1593 C   0  0  0  0  0  0  0  0  0  0  0  0
    2.0150   -1.4671   10.9360 N   0  0  0  0  0  0  0  0  0  0  0  0
    0.4647   -1.4741    9.5782 C   0  0  0  0  0  0  0  0  0  0  0  0
   -1.5681   -1.2631    8.7722 C   0  0  0  0  0  0  0  0  0  0  0  0
   -3.0098   -0.5754    7.6787 N   0  0  0  0  0  0  0  0  0  0  0  0
   -4.0151   -1.5849    7.4663 C   0  0  0  0  0  0  0  0  0  0  0  0
   -4.9991   -1.8428    8.0966 O   0  0  0  0  0  0  0  0  0  0  0  0
   -3.9791   -2.3786    6.2659 C   0  0  0  0  0  0  0  0  0  0  0  0
   -3.7954   -1.7642    4.9831 C   0  0  0  0  0  0  0  0  0  0  0  0
   -4.5508   -2.2847    4.0080 N   0  0  0  0  0  0  0  0  0  0  0  0
   -5.2950   -3.1919    4.6488 N   0  0  0  0  0  0  0  0  0  0  0  0
   -5.0207   -3.2554    5.9797 C   0  0  0  0  0  0  0  0  0  0  0  0
   -2.9590    0.4472    8.6030 C   0  0  0  0  0  0  0  0  0  0  0  0
   -3.2621    1.9027    8.1902 C   0  0  0  0  0  0  0  0  0  0  0  0
   -4.3927    1.0288    7.9706 C   0  0  0  0  0  0  0  0  0  0  0  0
    5.2822   -2.3956   12.2608 C   0  0  0  0  0  0  0  0  0  0  0  0
    6.4202   -1.1040   11.8564 C   0  0  0  0  0  0  0  0  0  0  0  0
    7.3457   -0.4113   12.4048 N   0  0  0  0  0  0  0  0  0  0  0  0
    7.8224   -0.7178   13.5932 C   0  0  0  0  0  0  0  0  0  0  0  0
    8.7715   -0.0467   14.2254 N   0  0  0  0  0  0  0  0  0  0  0  0
    8.6608   -0.4011   15.4915 C   0  0  0  0  0  0  0  0  0  0  0  0
    7.4596   -1.0454   15.5643 C   0  0  0  0  0  0  0  0  0  0  0  0
    7.0869   -1.5641   14.3195 N   0  0  0  0  0  0  0  0  0  0  0  0
    5.9202   -2.2781   13.7618 C   0  0  0  0  0  0  0  0  0  0  0  0
    2.1347   -0.6463   11.5178 H   0  0  0  0  0  0  0  0  0  0  0  0
    0.8363   -2.0620    8.6773 H   0  0  0  0  0  0  0  0  0  0  0  0
    1.0276   -0.6182    9.2158 H   0  0  0  0  0  0  0  0  0  0  0  0
   -1.4357   -1.4480    7.7064 H   0  0  0  0  0  0  0  0  0  0  0  0
   -2.2214   -2.0900    9.0214 H   0  0  0  0  0  0  0  0  0  0  0  0
   -3.2219   -0.8772    4.7559 H   0  0  0  0  0  0  0  0  0  0  0  0
   -6.0231   -3.6821    4.1388 H   0  0  0  0  0  0  0  0  0  0  0  0
   -5.7202   -3.7515    6.6378 H   0  0  0  0  0  0  0  0  0  0  0  0
   -3.3049    0.1245    9.5706 H   0  0  0  0  0  0  0  0  0  0  0  0
   -2.4077    2.3034    7.7148 H   0  0  0  0  0  0  0  0  0  0  0  0
   -3.5602    2.8948    8.5278 H   0  0  0  0  0  0  0  0  0  0  0  0
   -5.2665    0.8900    8.5998 H   0  0  0  0  0  0  0  0  0  0  0  0
   -4.7320    0.8249    6.9563 H   0  0  0  0  0  0  0  0  0  0  0  0
    6.3851   -0.6819   10.8555 H   0  0  0  0  0  0  0  0  0  0  0  0
    9.2307    0.0951   16.2639 H   0  0  0  0  0  0  0  0  0  0  0  0
    6.7556   -0.7682   16.3264 H   0  0  0  0  0  0  0  0  0  0  0  0
    5.3191   -2.5945   14.6097 H   0  0  0  0  0  0  0  0  0  0  0  0
  1  2  2  0
  2  3  1  0
  3  4  1  0
  4  5  1  0
  5  6  1  0
  6  7  1  0
  7  8  2  0
  7  9  1  0
  9 10  1  0
 10 11  2  0
 11 12  1  0
 12 13  1  0
  6 14  1  0
 14 15  1  0
 15 16  1  0
  2 17  1  0
 17 18  1  0
 18 19  2  0
 19 20  1  0
 20 21  2  0
 21 22  1  0
 22 23  2  0
 23 24  1  0
 24 25  1  0
 13  9  2  0
 16 14  1  0
 25 17  2  0
 24 20  1  0
  3 26  1  0
  4 27  1  0
  4 28  1  0
  5 29  1  0
  5 30  1  0
 10 31  1  0
 12 32  1  0
 13 33  1  0
 14 34  1  0
 15 35  1  0
 15 36  1  0
 16 37  1  0
 16 38  1  0
 18 39  1  0
 22 40  1  0
 23 41  1  0
 25 42  1  0
M  END
>  <Energy>  (294) 
918.34051854474353

>  <compound_id>  (294) 
25649

>  <target_id>  (294) 
1

>  <reference_id>  (294) 
99

>  <inspiration_ids>  (294) 
[106, 99]

>  <energy_score>  (294) 
847.3788241990585

>  <distance_score>  (294) 
5.9778648476643195

>  <path>  (294) 
/opt/xchem-fragalysis-2/maxwin/BulkDock/SCRATCH/511017/C25649-P99/C25649-P99.minimised.mol

>  <scratch_subdir>  (294) 
/opt/xchem-fragalysis-2/maxwin/BulkDock/SCRATCH/511017/C25649-P99

>  <fragmenstein_runtime>  (294) 
9.830498933792114

>  <fragmenstein_outcome>  (294) 
too moved

>  <fragmenstein_mode>  (294) 
expansion

>  <fragmenstein_error>  (294) 


$$$$
C25653-P106
     RDKit          3D

 42 45  0  0  0  0  0  0  0  0999 V2000
    3.3146    1.2130   11.1304 O   0  0  0  0  0  0  0  0  0  0  0  0
    3.3950   -0.0046   11.2466 C   0  0  0  0  0  0  0  0  0  0  0  0
    1.9442   -1.2152   10.8936 N   0  0  0  0  0  0  0  0  0  0  0  0
    0.2135   -0.9281   10.2013 C   0  0  0  0  0  0  0  0  0  0  0  0
   -1.6108   -1.0541    9.0049 C   0  0  0  0  0  0  0  0  0  0  0  0
   -3.1405   -0.3352    8.1467 N   0  0  0  0  0  0  0  0  0  0  0  0
   -4.3087   -1.1883    8.3211 C   0  0  0  0  0  0  0  0  0  0  0  0
   -5.1245   -1.1594    9.1779 O   0  0  0  0  0  0  0  0  0  0  0  0
   -4.6923   -2.1320    7.3365 C   0  0  0  0  0  0  0  0  0  0  0  0
   -6.0224   -1.7792    6.8012 C   0  0  0  0  0  0  0  0  0  0  0  0
   -6.6573   -2.7740    6.2089 N   0  0  0  0  0  0  0  0  0  0  0  0
   -5.8425   -3.7887    6.4539 N   0  0  0  0  0  0  0  0  0  0  0  0
   -4.6371   -3.4515    7.0451 C   0  0  0  0  0  0  0  0  0  0  0  0
   -2.7396    0.7701    8.8439 C   0  0  0  0  0  0  0  0  0  0  0  0
   -4.2532    1.3343    8.4882 C   0  0  0  0  0  0  0  0  0  0  0  0
   -3.1896    2.3343    8.7480 C   0  0  0  0  0  0  0  0  0  0  0  0
    5.2288   -0.7169   11.6929 C   0  0  0  0  0  0  0  0  0  0  0  0
    5.9838   -1.9724   12.5170 C   0  0  0  0  0  0  0  0  0  0  0  0
    7.0758   -1.6286   13.1972 N   0  0  0  0  0  0  0  0  0  0  0  0
    7.5873   -1.9522   14.4662 C   0  0  0  0  0  0  0  0  0  0  0  0
    8.5985   -1.2287   14.9851 C   0  0  0  0  0  0  0  0  0  0  0  0
    9.1026   -0.1444   14.0960 C   0  0  0  0  0  0  0  0  0  0  0  0
    8.6387    0.1220   12.8966 N   0  0  0  0  0  0  0  0  0  0  0  0
    7.5542   -0.6706   12.3905 C   0  0  0  0  0  0  0  0  0  0  0  0
    6.7666   -0.6264   11.2675 N   0  0  0  0  0  0  0  0  0  0  0  0
    2.2773   -2.1717   10.9714 H   0  0  0  0  0  0  0  0  0  0  0  0
    0.6427   -1.8153    9.7260 H   0  0  0  0  0  0  0  0  0  0  0  0
   -0.1818   -0.9421   11.1943 H   0  0  0  0  0  0  0  0  0  0  0  0
   -1.3651   -1.4110    7.9915 H   0  0  0  0  0  0  0  0  0  0  0  0
   -2.2452   -1.9283    9.1596 H   0  0  0  0  0  0  0  0  0  0  0  0
   -6.5267   -0.8236    6.8948 H   0  0  0  0  0  0  0  0  0  0  0  0
   -6.2214   -4.7016    6.2312 H   0  0  0  0  0  0  0  0  0  0  0  0
   -3.8965   -4.1772    7.3433 H   0  0  0  0  0  0  0  0  0  0  0  0
   -2.8780    0.3260    9.7784 H   0  0  0  0  0  0  0  0  0  0  0  0
   -5.0413    0.8198    9.0270 H   0  0  0  0  0  0  0  0  0  0  0  0
   -4.9057    1.2559    7.5938 H   0  0  0  0  0  0  0  0  0  0  0  0
   -2.6351    3.0008    8.0860 H   0  0  0  0  0  0  0  0  0  0  0  0
   -3.4450    3.1149    9.4527 H   0  0  0  0  0  0  0  0  0  0  0  0
    5.4481   -2.8922   12.7249 H   0  0  0  0  0  0  0  0  0  0  0  0
    7.0940   -2.7489   14.9848 H   0  0  0  0  0  0  0  0  0  0  0  0
    9.0897   -1.3717   15.9248 H   0  0  0  0  0  0  0  0  0  0  0  0
    9.9431    0.4492   14.4917 H   0  0  0  0  0  0  0  0  0  0  0  0
  1  2  2  0
  2  3  1  0
  3  4  1  0
  4  5  1  0
  5  6  1  0
  6  7  1  0
  7  8  2  0
  7  9  1  0
  9 10  1  0
 10 11  2  0
 11 12  1  0
 12 13  1  0
  6 14  1  0
 14 15  1  0
 15 16  1  0
  2 17  1  0
 17 18  2  0
 18 19  1  0
 19 20  1  0
 20 21  2  0
 21 22  1  0
 22 23  2  0
 23 24  1  0
 24 25  2  0
 13  9  2  0
 16 14  1  0
 25 17  1  0
 24 19  1  0
  3 26  1  0
  4 27  1  0
  4 28  1  0
  5 29  1  0
  5 30  1  0
 10 31  1  0
 12 32  1  0
 13 33  1  0
 14 34  1  0
 15 35  1  0
 15 36  1  0
 16 37  1  0
 16 38  1  0
 18 39  1  0
 20 40  1  0
 21 41  1  0
 22 42  1  0
M  END
>  <Energy>  (295) 
901.95681127329294

>  <compound_id>  (295) 
25653

>  <target_id>  (295) 
1

>  <reference_id>  (295) 
106

>  <inspiration_ids>  (295) 
[106, 99]

>  <energy_score>  (295) 
787.4707227843414

>  <distance_score>  (295) 
5.14672535525309

>  <path>  (295) 
/opt/xchem-fragalysis-2/maxwin/BulkDock/SCRATCH/511017/C25653-P106/C25653-P106.minimised.mol

>  <scratch_subdir>  (295) 
/opt/xchem-fragalysis-2/maxwin/BulkDock/SCRATCH/511017/C25653-P106

>  <fragmenstein_runtime>  (295) 
10.55297303199768

>  <fragmenstein_outcome>  (295) 
too moved

>  <fragmenstein_mode>  (295) 
expansion

>  <fragmenstein_error>  (295) 


$$$$
C25653-P99
     RDKit          3D

 42 45  0  0  0  0  0  0  0  0999 V2000
    3.6093    0.9986   10.5441 O   0  0  0  0  0  0  0  0  0  0  0  0
    3.5923   -0.0971   11.0887 C   0  0  0  0  0  0  0  0  0  0  0  0
    2.0100   -1.2873   10.8826 N   0  0  0  0  0  0  0  0  0  0  0  0
    0.3254   -1.1098    9.7158 C   0  0  0  0  0  0  0  0  0  0  0  0
   -1.6382   -1.2159    8.7712 C   0  0  0  0  0  0  0  0  0  0  0  0
   -3.0777   -0.5377    7.6932 N   0  0  0  0  0  0  0  0  0  0  0  0
   -4.0757   -1.5491    7.4873 C   0  0  0  0  0  0  0  0  0  0  0  0
   -5.0558   -1.8122    8.1224 O   0  0  0  0  0  0  0  0  0  0  0  0
   -4.0387   -2.3452    6.2851 C   0  0  0  0  0  0  0  0  0  0  0  0
   -3.8261   -1.7555    4.9995 C   0  0  0  0  0  0  0  0  0  0  0  0
   -4.5579   -2.3000    4.0193 N   0  0  0  0  0  0  0  0  0  0  0  0
   -5.3119   -3.1988    4.6616 N   0  0  0  0  0  0  0  0  0  0  0  0
   -5.0633   -3.2401    5.9982 C   0  0  0  0  0  0  0  0  0  0  0  0
   -3.0256    0.4861    8.6160 C   0  0  0  0  0  0  0  0  0  0  0  0
   -4.4356    1.0850    7.9571 C   0  0  0  0  0  0  0  0  0  0  0  0
   -3.2930    1.9478    8.1867 C   0  0  0  0  0  0  0  0  0  0  0  0
    5.3937   -0.4745   11.9340 C   0  0  0  0  0  0  0  0  0  0  0  0
    6.0837   -1.5744   12.5021 C   0  0  0  0  0  0  0  0  0  0  0  0
    7.1341   -1.1679   13.3130 N   0  0  0  0  0  0  0  0  0  0  0  0
    7.7081   -1.5173   14.5275 C   0  0  0  0  0  0  0  0  0  0  0  0
    8.7115   -0.7779   15.0358 C   0  0  0  0  0  0  0  0  0  0  0  0
    9.1206    0.3954   14.2103 C   0  0  0  0  0  0  0  0  0  0  0  0
    8.6143    0.7163   13.0528 N   0  0  0  0  0  0  0  0  0  0  0  0
    7.6069   -0.1339   12.5671 C   0  0  0  0  0  0  0  0  0  0  0  0
    6.8849   -0.2304   11.4476 N   0  0  0  0  0  0  0  0  0  0  0  0
    2.1986   -2.1412   11.3111 H   0  0  0  0  0  0  0  0  0  0  0  0
    0.5271   -1.9093    9.0661 H   0  0  0  0  0  0  0  0  0  0  0  0
    1.0333   -0.4540    9.1534 H   0  0  0  0  0  0  0  0  0  0  0  0
   -2.2456   -2.0671    9.0346 H   0  0  0  0  0  0  0  0  0  0  0  0
   -1.4504   -1.4225    7.7265 H   0  0  0  0  0  0  0  0  0  0  0  0
   -3.2492   -0.8713    4.7679 H   0  0  0  0  0  0  0  0  0  0  0  0
   -6.0244   -3.7038    4.1445 H   0  0  0  0  0  0  0  0  0  0  0  0
   -5.7631   -3.7406    6.6525 H   0  0  0  0  0  0  0  0  0  0  0  0
   -3.3768    0.1647    9.5842 H   0  0  0  0  0  0  0  0  0  0  0  0
   -4.7641    0.8714    6.9410 H   0  0  0  0  0  0  0  0  0  0  0  0
   -5.3255    0.9729    8.5693 H   0  0  0  0  0  0  0  0  0  0  0  0
   -3.5796    2.9431    8.5288 H   0  0  0  0  0  0  0  0  0  0  0  0
   -2.4213    2.3220    7.7189 H   0  0  0  0  0  0  0  0  0  0  0  0
    6.4138   -2.0798   11.6179 H   0  0  0  0  0  0  0  0  0  0  0  0
    7.3288   -2.4045   14.9783 H   0  0  0  0  0  0  0  0  0  0  0  0
    9.2602   -0.9806   15.9372 H   0  0  0  0  0  0  0  0  0  0  0  0
    9.9228    1.0194   14.6369 H   0  0  0  0  0  0  0  0  0  0  0  0
  1  2  2  0
  2  3  1  0
  3  4  1  0
  4  5  1  0
  5  6  1  0
  6  7  1  0
  7  8  2  0
  7  9  1  0
  9 10  1  0
 10 11  2  0
 11 12  1  0
 12 13  1  0
  6 14  1  0
 14 15  1  0
 15 16  1  0
  2 17  1  0
 17 18  2  0
 18 19  1  0
 19 20  1  0
 20 21  2  0
 21 22  1  0
 22 23  2  0
 23 24  1  0
 24 25  2  0
 13  9  2  0
 16 14  1  0
 25 17  1  0
 24 19  1  0
  3 26  1  0
  4 27  1  0
  4 28  1  0
  5 29  1  0
  5 30  1  0
 10 31  1  0
 12 32  1  0
 13 33  1  0
 14 34  1  0
 15 35  1  0
 15 36  1  0
 16 37  1  0
 16 38  1  0
 18 39  1  0
 20 40  1  0
 21 41  1  0
 22 42  1  0
M  END
>  <Energy>  (296) 
941.61692924704028

>  <compound_id>  (296) 
25653

>  <target_id>  (296) 
1

>  <reference_id>  (296) 
99

>  <inspiration_ids>  (296) 
[106, 99]

>  <energy_score>  (296) 
827.1308407580932

>  <distance_score>  (296) 
5.211025190561887

>  <path>  (296) 
/opt/xchem-fragalysis-2/maxwin/BulkDock/SCRATCH/511017/C25653-P99/C25653-P99.minimised.mol

>  <scratch_subdir>  (296) 
/opt/xchem-fragalysis-2/maxwin/BulkDock/SCRATCH/511017/C25653-P99

>  <fragmenstein_runtime>  (296) 
9.876438856124878

>  <fragmenstein_outcome>  (296) 
too moved

>  <fragmenstein_mode>  (296) 
expansion

>  <fragmenstein_error>  (296) 


$$$$
C25655-P106
     RDKit          3D

 41 43  0  0  0  0  0  0  0  0999 V2000
   -1.4594   -1.6012    8.5621 C   0  0  0  0  0  0  0  0  0  0  0  0
   -0.0282   -1.1689   10.0341 C   0  0  0  0  0  0  0  0  0  0  0  0
   -1.8231   -0.2987    9.1095 C   0  0  0  0  0  0  0  0  0  0  0  0
   -3.5678    0.0973    8.3569 N   0  0  0  0  0  0  0  0  0  0  0  0
   -3.2782   -0.9917    7.5567 C   0  0  0  0  0  0  0  0  0  0  0  0
   -4.7981   -0.0421    8.8642 C   0  0  0  0  0  0  0  0  0  0  0  0
   -5.1490   -0.5214    9.8506 O   0  0  0  0  0  0  0  0  0  0  0  0
   -5.9389    0.3875    7.9966 C   0  0  0  0  0  0  0  0  0  0  0  0
   -6.0543    0.8203    6.6570 C   0  0  0  0  0  0  0  0  0  0  0  0
   -7.3162    0.9331    6.2335 N   0  0  0  0  0  0  0  0  0  0  0  0
   -8.0382    0.5435    7.2923 N   0  0  0  0  0  0  0  0  0  0  0  0
   -7.2705    0.2405    8.3713 C   0  0  0  0  0  0  0  0  0  0  0  0
    1.7682   -1.2815   11.0312 N   0  0  0  0  0  0  0  0  0  0  0  0
    3.0649   -2.7319   11.2366 C   0  0  0  0  0  0  0  0  0  0  0  0
    2.9086   -3.7836   10.6334 O   0  0  0  0  0  0  0  0  0  0  0  0
    4.8074   -2.8248   12.3434 C   0  0  0  0  0  0  0  0  0  0  0  0
    5.4836   -2.8894   14.0569 C   0  0  0  0  0  0  0  0  0  0  0  0
    6.0144   -2.2561   15.0146 N   0  0  0  0  0  0  0  0  0  0  0  0
    7.2793   -1.9534   14.7663 C   0  0  0  0  0  0  0  0  0  0  0  0
    8.2255   -1.5738   15.5846 N   0  0  0  0  0  0  0  0  0  0  0  0
    8.9474   -0.6791   14.8954 C   0  0  0  0  0  0  0  0  0  0  0  0
    8.3561   -0.5123   13.6663 C   0  0  0  0  0  0  0  0  0  0  0  0
    7.3736   -1.5579   13.4588 N   0  0  0  0  0  0  0  0  0  0  0  0
    6.2158   -1.8411   12.4035 C   0  0  0  0  0  0  0  0  0  0  0  0
   -1.9034   -2.4920    8.1318 H   0  0  0  0  0  0  0  0  0  0  0  0
   -2.3983   -1.9688    9.1152 H   0  0  0  0  0  0  0  0  0  0  0  0
   -1.2310   -1.3439    7.5041 H   0  0  0  0  0  0  0  0  0  0  0  0
    0.6492   -1.9079    9.4625 H   0  0  0  0  0  0  0  0  0  0  0  0
   -1.6841    0.5962    8.5222 H   0  0  0  0  0  0  0  0  0  0  0  0
   -2.3749    0.0416    9.9242 H   0  0  0  0  0  0  0  0  0  0  0  0
   -2.8084   -0.7453    6.6411 H   0  0  0  0  0  0  0  0  0  0  0  0
   -3.6184   -1.9941    7.8695 H   0  0  0  0  0  0  0  0  0  0  0  0
   -4.2259   -1.0001    7.0059 H   0  0  0  0  0  0  0  0  0  0  0  0
   -5.2803    1.0199    5.9353 H   0  0  0  0  0  0  0  0  0  0  0  0
   -9.0495    0.5090    7.2076 H   0  0  0  0  0  0  0  0  0  0  0  0
   -7.7142   -0.0988    9.2969 H   0  0  0  0  0  0  0  0  0  0  0  0
    2.0127   -0.5433   11.6598 H   0  0  0  0  0  0  0  0  0  0  0  0
    6.3277   -3.4835   13.8956 H   0  0  0  0  0  0  0  0  0  0  0  0
    9.8036   -0.1615   15.3061 H   0  0  0  0  0  0  0  0  0  0  0  0
    8.6141    0.1271   12.8590 H   0  0  0  0  0  0  0  0  0  0  0  0
    6.4126   -1.0856   11.6397 H   0  0  0  0  0  0  0  0  0  0  0  0
  1  2  1  0
  2  3  1  0
  3  4  1  0
  4  5  1  0
  4  6  1  0
  6  7  2  0
  6  8  1  0
  8  9  1  0
  9 10  2  0
 10 11  1  0
 11 12  1  0
  2 13  1  0
 13 14  1  0
 14 15  2  0
 14 16  1  0
 16 17  1  0
 17 18  2  0
 18 19  1  0
 19 20  2  0
 20 21  1  0
 21 22  2  0
 22 23  1  0
 23 24  1  0
 12  8  2  0
 24 16  2  0
 23 19  1  0
  1 25  1  0
  1 26  1  0
  1 27  1  0
  2 28  1  0
  3 29  1  0
  3 30  1  0
  5 31  1  0
  5 32  1  0
  5 33  1  0
  9 34  1  0
 11 35  1  0
 12 36  1  0
 13 37  1  0
 17 38  1  0
 21 39  1  0
 22 40  1  0
 24 41  1  0
M  END
>  <Energy>  (297) 
1394.2737680397395

>  <compound_id>  (297) 
25655

>  <target_id>  (297) 
1

>  <reference_id>  (297) 
106

>  <inspiration_ids>  (297) 
[106, 99]

>  <energy_score>  (297) 
1345.0503091677083

>  <distance_score>  (297) 
6.185884475046374

>  <path>  (297) 
/opt/xchem-fragalysis-2/maxwin/BulkDock/SCRATCH/511017/C25655-P106/C25655-P106.minimised.mol

>  <scratch_subdir>  (297) 
/opt/xchem-fragalysis-2/maxwin/BulkDock/SCRATCH/511017/C25655-P106

>  <fragmenstein_runtime>  (297) 
6.637877941131592

>  <fragmenstein_outcome>  (297) 
too moved

>  <fragmenstein_mode>  (297) 
expansion

>  <fragmenstein_error>  (297) 


$$$$
C25655-P99
     RDKit          3D

 41 43  0  0  0  0  0  0  0  0999 V2000
   -1.9312   -1.8581    8.8442 C   0  0  0  0  0  0  0  0  0  0  0  0
   -0.0468   -1.2506    9.4454 C   0  0  0  0  0  0  0  0  0  0  0  0
   -1.7800   -0.5450    8.2884 C   0  0  0  0  0  0  0  0  0  0  0  0
   -3.4813   -1.0255    7.4230 N   0  0  0  0  0  0  0  0  0  0  0  0
   -2.7182   -0.8506    6.2552 C   0  0  0  0  0  0  0  0  0  0  0  0
   -4.1942   -2.2939    7.3516 C   0  0  0  0  0  0  0  0  0  0  0  0
   -3.8760   -3.3894    7.7260 O   0  0  0  0  0  0  0  0  0  0  0  0
   -5.5416   -2.0923    6.7847 C   0  0  0  0  0  0  0  0  0  0  0  0
   -6.1971   -0.9052    6.3845 C   0  0  0  0  0  0  0  0  0  0  0  0
   -7.4329   -1.1116    5.9196 N   0  0  0  0  0  0  0  0  0  0  0  0
   -7.6060   -2.4353    6.0650 N   0  0  0  0  0  0  0  0  0  0  0  0
   -6.4939   -3.0662    6.5376 C   0  0  0  0  0  0  0  0  0  0  0  0
    1.4562   -1.4523   10.9006 N   0  0  0  0  0  0  0  0  0  0  0  0
    3.2008   -2.3427   10.9080 C   0  0  0  0  0  0  0  0  0  0  0  0
    3.3675   -2.9472    9.9043 O   0  0  0  0  0  0  0  0  0  0  0  0
    4.9356   -2.4602   12.0856 C   0  0  0  0  0  0  0  0  0  0  0  0
    6.2448   -1.1067   11.8330 C   0  0  0  0  0  0  0  0  0  0  0  0
    7.1929   -0.4519   12.3873 N   0  0  0  0  0  0  0  0  0  0  0  0
    7.6161   -0.8165   13.5562 C   0  0  0  0  0  0  0  0  0  0  0  0
    8.3530   -0.1232   14.3957 N   0  0  0  0  0  0  0  0  0  0  0  0
    8.7368   -1.0556   15.2602 C   0  0  0  0  0  0  0  0  0  0  0  0
    7.9775   -2.1734   15.0297 C   0  0  0  0  0  0  0  0  0  0  0  0
    7.0490   -1.8971   14.0601 N   0  0  0  0  0  0  0  0  0  0  0  0
    5.7821   -2.4269   13.5594 C   0  0  0  0  0  0  0  0  0  0  0  0
   -2.9223   -1.4803    9.2095 H   0  0  0  0  0  0  0  0  0  0  0  0
   -2.4675   -2.7666    9.0766 H   0  0  0  0  0  0  0  0  0  0  0  0
   -1.9943   -2.2431    7.8005 H   0  0  0  0  0  0  0  0  0  0  0  0
   -0.4228   -1.0851   10.5937 H   0  0  0  0  0  0  0  0  0  0  0  0
   -2.4593    0.1308    8.9333 H   0  0  0  0  0  0  0  0  0  0  0  0
   -1.7331    0.2856    7.5862 H   0  0  0  0  0  0  0  0  0  0  0  0
   -3.1004   -1.6372    5.5758 H   0  0  0  0  0  0  0  0  0  0  0  0
   -1.7161   -1.2701    6.2431 H   0  0  0  0  0  0  0  0  0  0  0  0
   -3.1618   -0.1500    5.5726 H   0  0  0  0  0  0  0  0  0  0  0  0
   -5.8175    0.1075    6.4145 H   0  0  0  0  0  0  0  0  0  0  0  0
   -8.5041   -2.8415    5.8157 H   0  0  0  0  0  0  0  0  0  0  0  0
   -6.4893   -4.1352    6.6768 H   0  0  0  0  0  0  0  0  0  0  0  0
    1.3256   -1.0204   11.8139 H   0  0  0  0  0  0  0  0  0  0  0  0
    6.2690   -0.6328   10.8444 H   0  0  0  0  0  0  0  0  0  0  0  0
    9.5604   -0.8985   15.9404 H   0  0  0  0  0  0  0  0  0  0  0  0
    8.1332   -3.1535   15.3973 H   0  0  0  0  0  0  0  0  0  0  0  0
    5.2354   -2.6359   14.4899 H   0  0  0  0  0  0  0  0  0  0  0  0
  1  2  1  0
  2  3  1  0
  3  4  1  0
  4  5  1  0
  4  6  1  0
  6  7  2  0
  6  8  1  0
  8  9  1  0
  9 10  2  0
 10 11  1  0
 11 12  1  0
  2 13  1  0
 13 14  1  0
 14 15  2  0
 14 16  1  0
 16 17  1  0
 17 18  2  0
 18 19  1  0
 19 20  2  0
 20 21  1  0
 21 22  2  0
 22 23  1  0
 23 24  1  0
 12  8  2  0
 24 16  2  0
 23 19  1  0
  1 25  1  0
  1 26  1  0
  1 27  1  0
  2 28  1  0
  3 29  1  0
  3 30  1  0
  5 31  1  0
  5 32  1  0
  5 33  1  0
  9 34  1  0
 11 35  1  0
 12 36  1  0
 13 37  1  0
 17 38  1  0
 21 39  1  0
 22 40  1  0
 24 41  1  0
M  END
>  <Energy>  (298) 
1326.278572883042

>  <compound_id>  (298) 
25655

>  <target_id>  (298) 
1

>  <reference_id>  (298) 
99

>  <inspiration_ids>  (298) 
[106, 99]

>  <energy_score>  (298) 
1277.055114011022

>  <distance_score>  (298) 
5.8624841020196445

>  <path>  (298) 
/opt/xchem-fragalysis-2/maxwin/BulkDock/SCRATCH/511017/C25655-P99/C25655-P99.minimised.mol

>  <scratch_subdir>  (298) 
/opt/xchem-fragalysis-2/maxwin/BulkDock/SCRATCH/511017/C25655-P99

>  <fragmenstein_runtime>  (298) 
11.422384023666382

>  <fragmenstein_outcome>  (298) 
too moved

>  <fragmenstein_mode>  (298) 
expansion

>  <fragmenstein_error>  (298) 


$$$$
C25658-P106
     RDKit          3D

 44 46  0  0  0  0  0  0  0  0999 V2000
   -3.3177   -0.4781    6.0861 C   0  0  0  0  0  0  0  0  0  0  0  0
   -3.1594   -1.1970    7.3436 C   0  0  0  0  0  0  0  0  0  0  0  0
   -2.9617   -0.1824    8.3736 N   0  0  0  0  0  0  0  0  0  0  0  0
   -4.1564    0.0212    9.0375 C   0  0  0  0  0  0  0  0  0  0  0  0
   -4.5851   -0.4853   10.0037 O   0  0  0  0  0  0  0  0  0  0  0  0
   -5.1981    0.9664    8.3605 C   0  0  0  0  0  0  0  0  0  0  0  0
   -5.4926    2.2430    7.7736 C   0  0  0  0  0  0  0  0  0  0  0  0
   -6.6714    2.3187    7.1514 N   0  0  0  0  0  0  0  0  0  0  0  0
   -7.2437    1.1434    7.4162 N   0  0  0  0  0  0  0  0  0  0  0  0
   -6.4292    0.3189    8.1158 C   0  0  0  0  0  0  0  0  0  0  0  0
   -1.3923   -1.3037    8.8378 C   0  0  0  0  0  0  0  0  0  0  0  0
   -2.6253   -2.5925    8.7165 C   0  0  0  0  0  0  0  0  0  0  0  0
    0.6630   -1.6109    9.8241 C   0  0  0  0  0  0  0  0  0  0  0  0
    2.3154   -2.5555   10.7251 N   0  0  0  0  0  0  0  0  0  0  0  0
    3.8856   -1.8837   11.4671 C   0  0  0  0  0  0  0  0  0  0  0  0
    4.1380   -0.6679   11.3841 O   0  0  0  0  0  0  0  0  0  0  0  0
    5.3676   -2.7849   12.4803 C   0  0  0  0  0  0  0  0  0  0  0  0
    6.5822   -1.4394   12.0885 C   0  0  0  0  0  0  0  0  0  0  0  0
    7.4929   -0.7433   12.6587 N   0  0  0  0  0  0  0  0  0  0  0  0
    7.9041   -1.1460   13.8336 C   0  0  0  0  0  0  0  0  0  0  0  0
    8.6836   -0.5371   14.6986 N   0  0  0  0  0  0  0  0  0  0  0  0
    9.1794   -1.6005   15.3101 C   0  0  0  0  0  0  0  0  0  0  0  0
    8.3567   -2.6721   15.0099 C   0  0  0  0  0  0  0  0  0  0  0  0
    7.2958   -2.2302   14.3039 N   0  0  0  0  0  0  0  0  0  0  0  0
    6.0246   -2.7097   13.8542 C   0  0  0  0  0  0  0  0  0  0  0  0
   -4.2325    0.1473    5.9860 H   0  0  0  0  0  0  0  0  0  0  0  0
   -2.7568   -0.5453    5.1500 H   0  0  0  0  0  0  0  0  0  0  0  0
   -2.5728   -0.1473    6.6211 H   0  0  0  0  0  0  0  0  0  0  0  0
   -4.2688   -1.0707    7.4407 H   0  0  0  0  0  0  0  0  0  0  0  0
   -3.8175   -2.1232    7.2571 H   0  0  0  0  0  0  0  0  0  0  0  0
   -4.9030    3.1560    7.7898 H   0  0  0  0  0  0  0  0  0  0  0  0
   -8.1889    0.9718    7.0855 H   0  0  0  0  0  0  0  0  0  0  0  0
   -6.7550   -0.6784    8.3833 H   0  0  0  0  0  0  0  0  0  0  0  0
   -1.6776   -0.8057    9.6877 H   0  0  0  0  0  0  0  0  0  0  0  0
   -2.6128   -3.0663    7.7374 H   0  0  0  0  0  0  0  0  0  0  0  0
   -2.9216   -3.5436    9.1286 H   0  0  0  0  0  0  0  0  0  0  0  0
   -3.5091   -2.1038    9.0579 H   0  0  0  0  0  0  0  0  0  0  0  0
    1.0805   -2.1541    8.9388 H   0  0  0  0  0  0  0  0  0  0  0  0
    1.1579   -0.6651    9.9347 H   0  0  0  0  0  0  0  0  0  0  0  0
    2.3306   -3.5726   10.8178 H   0  0  0  0  0  0  0  0  0  0  0  0
    6.4548   -0.9876   11.0997 H   0  0  0  0  0  0  0  0  0  0  0  0
   10.1341   -1.5838   15.8190 H   0  0  0  0  0  0  0  0  0  0  0  0
    8.6065   -3.7045   15.0983 H   0  0  0  0  0  0  0  0  0  0  0  0
    5.4669   -2.9990   14.7348 H   0  0  0  0  0  0  0  0  0  0  0  0
  1  2  1  0
  2  3  1  0
  3  4  1  0
  4  5  2  0
  4  6  1  0
  6  7  1  0
  7  8  2  0
  8  9  1  0
  9 10  1  0
  3 11  1  0
 11 12  1  0
 11 13  1  0
 13 14  1  0
 14 15  1  0
 15 16  2  0
 15 17  1  0
 17 18  1  0
 18 19  2  0
 19 20  1  0
 20 21  2  0
 21 22  1  0
 22 23  2  0
 23 24  1  0
 24 25  1  0
 10  6  2  0
 25 17  2  0
 24 20  1  0
  1 26  1  0
  1 27  1  0
  1 28  1  0
  2 29  1  0
  2 30  1  0
  7 31  1  0
  9 32  1  0
 10 33  1  0
 11 34  1  0
 12 35  1  0
 12 36  1  0
 12 37  1  0
 13 38  1  0
 13 39  1  0
 14 40  1  0
 18 41  1  0
 22 42  1  0
 23 43  1  0
 25 44  1  0
M  END
>  <Energy>  (299) 
1152.7297280789955

>  <compound_id>  (299) 
25658

>  <target_id>  (299) 
1

>  <reference_id>  (299) 
106

>  <inspiration_ids>  (299) 
[106, 99]

>  <energy_score>  (299) 
1068.9873224719336

>  <distance_score>  (299) 
6.089553463612527

>  <path>  (299) 
/opt/xchem-fragalysis-2/maxwin/BulkDock/SCRATCH/511017/C25658-P106/C25658-P106.minimised.mol

>  <scratch_subdir>  (299) 
/opt/xchem-fragalysis-2/maxwin/BulkDock/SCRATCH/511017/C25658-P106

>  <fragmenstein_runtime>  (299) 
13.582626104354858

>  <fragmenstein_outcome>  (299) 
too moved

>  <fragmenstein_mode>  (299) 
expansion

>  <fragmenstein_error>  (299) 


$$$$
C25658-P99
     RDKit          3D

 44 46  0  0  0  0  0  0  0  0999 V2000
   -3.2960   -1.2651    5.3513 C   0  0  0  0  0  0  0  0  0  0  0  0
   -2.9766   -0.8418    6.8201 C   0  0  0  0  0  0  0  0  0  0  0  0
   -3.3296   -1.8072    8.0214 N   0  0  0  0  0  0  0  0  0  0  0  0
   -3.7465   -3.0529    7.5129 C   0  0  0  0  0  0  0  0  0  0  0  0
   -3.1258   -4.0410    7.2677 O   0  0  0  0  0  0  0  0  0  0  0  0
   -5.2478   -2.8571    7.2069 C   0  0  0  0  0  0  0  0  0  0  0  0
   -6.1227   -3.4768    6.2710 C   0  0  0  0  0  0  0  0  0  0  0  0
   -7.3576   -2.9667    6.2390 N   0  0  0  0  0  0  0  0  0  0  0  0
   -7.3177   -2.0049    7.1578 N   0  0  0  0  0  0  0  0  0  0  0  0
   -6.0699   -1.8246    7.6739 C   0  0  0  0  0  0  0  0  0  0  0  0
   -1.6218   -1.2069    8.6769 C   0  0  0  0  0  0  0  0  0  0  0  0
   -2.8554    0.1647    8.8946 C   0  0  0  0  0  0  0  0  0  0  0  0
    0.3354   -1.1571    9.7008 C   0  0  0  0  0  0  0  0  0  0  0  0
    2.0199   -1.3819   10.8977 N   0  0  0  0  0  0  0  0  0  0  0  0
    3.6385   -0.2407   11.1349 C   0  0  0  0  0  0  0  0  0  0  0  0
    3.6918    0.8609   10.5821 O   0  0  0  0  0  0  0  0  0  0  0  0
    5.4924   -0.6699   12.0677 C   0  0  0  0  0  0  0  0  0  0  0  0
    6.9115   -0.3698   11.5177 C   0  0  0  0  0  0  0  0  0  0  0  0
    7.9159    0.2495   12.1398 N   0  0  0  0  0  0  0  0  0  0  0  0
    8.1570   -0.0255   13.4370 C   0  0  0  0  0  0  0  0  0  0  0  0
    8.9768    0.4174   14.3590 N   0  0  0  0  0  0  0  0  0  0  0  0
    9.0379   -0.6206   15.2448 C   0  0  0  0  0  0  0  0  0  0  0  0
    8.1472   -1.6143   14.8949 C   0  0  0  0  0  0  0  0  0  0  0  0
    7.4813   -1.1439   13.8031 N   0  0  0  0  0  0  0  0  0  0  0  0
    6.2477   -1.4390   13.1428 C   0  0  0  0  0  0  0  0  0  0  0  0
   -3.9153   -2.1490    5.2244 H   0  0  0  0  0  0  0  0  0  0  0  0
   -2.3952   -1.4120    4.7627 H   0  0  0  0  0  0  0  0  0  0  0  0
   -3.8336   -0.4589    4.8351 H   0  0  0  0  0  0  0  0  0  0  0  0
   -3.8769   -0.2054    6.8681 H   0  0  0  0  0  0  0  0  0  0  0  0
   -2.2040   -0.1078    6.8723 H   0  0  0  0  0  0  0  0  0  0  0  0
   -5.9433   -4.2553    5.5560 H   0  0  0  0  0  0  0  0  0  0  0  0
   -8.1715   -1.4931    7.3604 H   0  0  0  0  0  0  0  0  0  0  0  0
   -5.8862   -1.0296    8.3802 H   0  0  0  0  0  0  0  0  0  0  0  0
   -1.3792   -1.3203    7.6551 H   0  0  0  0  0  0  0  0  0  0  0  0
   -3.2178    0.2533    9.8799 H   0  0  0  0  0  0  0  0  0  0  0  0
   -3.9100    0.0101    8.6177 H   0  0  0  0  0  0  0  0  0  0  0  0
   -2.6269    1.0859    8.3560 H   0  0  0  0  0  0  0  0  0  0  0  0
    1.0448   -0.4873    9.1635 H   0  0  0  0  0  0  0  0  0  0  0  0
    0.5281   -1.9457    9.0282 H   0  0  0  0  0  0  0  0  0  0  0  0
    2.1071   -2.1715   11.4592 H   0  0  0  0  0  0  0  0  0  0  0  0
    6.9357   -0.3977   10.4260 H   0  0  0  0  0  0  0  0  0  0  0  0
    9.7495   -0.6062   16.0563 H   0  0  0  0  0  0  0  0  0  0  0  0
    7.9553   -2.5883   15.2789 H   0  0  0  0  0  0  0  0  0  0  0  0
    5.8318   -2.1968   13.8046 H   0  0  0  0  0  0  0  0  0  0  0  0
  1  2  1  0
  2  3  1  0
  3  4  1  0
  4  5  2  0
  4  6  1  0
  6  7  1  0
  7  8  2  0
  8  9  1  0
  9 10  1  0
  3 11  1  0
 11 12  1  0
 11 13  1  0
 13 14  1  0
 14 15  1  0
 15 16  2  0
 15 17  1  0
 17 18  1  0
 18 19  2  0
 19 20  1  0
 20 21  2  0
 21 22  1  0
 22 23  2  0
 23 24  1  0
 24 25  1  0
 10  6  2  0
 25 17  2  0
 24 20  1  0
  1 26  1  0
  1 27  1  0
  1 28  1  0
  2 29  1  0
  2 30  1  0
  7 31  1  0
  9 32  1  0
 10 33  1  0
 11 34  1  0
 12 35  1  0
 12 36  1  0
 12 37  1  0
 13 38  1  0
 13 39  1  0
 14 40  1  0
 18 41  1  0
 22 42  1  0
 23 43  1  0
 25 44  1  0
M  END
>  <Energy>  (300) 
990.40474369297715

>  <compound_id>  (300) 
25658

>  <target_id>  (300) 
1

>  <reference_id>  (300) 
99

>  <inspiration_ids>  (300) 
[106, 99]

>  <energy_score>  (300) 
906.6623380859246

>  <distance_score>  (300) 
5.601028665109289

>  <path>  (300) 
/opt/xchem-fragalysis-2/maxwin/BulkDock/SCRATCH/511017/C25658-P99/C25658-P99.minimised.mol

>  <scratch_subdir>  (300) 
/opt/xchem-fragalysis-2/maxwin/BulkDock/SCRATCH/511017/C25658-P99

>  <fragmenstein_runtime>  (300) 
18.404526472091675

>  <fragmenstein_outcome>  (300) 
too moved

>  <fragmenstein_mode>  (300) 
expansion

>  <fragmenstein_error>  (300) 


$$$$
C25663-P106
     RDKit          3D

 41 43  0  0  0  0  0  0  0  0999 V2000
   -1.3392   -0.7521    9.2326 C   0  0  0  0  0  0  0  0  0  0  0  0
    0.6864   -0.6687   10.0239 C   0  0  0  0  0  0  0  0  0  0  0  0
    2.2707    0.7311    9.7847 C   0  0  0  0  0  0  0  0  0  0  0  0
    2.7489    1.7773    8.5937 C   0  0  0  0  0  0  0  0  0  0  0  0
    1.9296    2.9750    8.4407 N   0  0  0  0  0  0  0  0  0  0  0  0
    1.7718    3.8700    7.3346 C   0  0  0  0  0  0  0  0  0  0  0  0
    2.3316    3.9129    6.2804 O   0  0  0  0  0  0  0  0  0  0  0  0
    0.6531    4.8050    7.5569 C   0  0  0  0  0  0  0  0  0  0  0  0
   -0.0956    5.1844    8.6962 C   0  0  0  0  0  0  0  0  0  0  0  0
   -1.2619    5.7668    8.3931 N   0  0  0  0  0  0  0  0  0  0  0  0
   -1.2649    5.7834    7.0554 N   0  0  0  0  0  0  0  0  0  0  0  0
   -0.1114    5.3064    6.5149 C   0  0  0  0  0  0  0  0  0  0  0  0
    3.7748    0.3557   10.7440 N   0  0  0  0  0  0  0  0  0  0  0  0
    4.3121    0.9381   11.8141 C   0  0  0  0  0  0  0  0  0  0  0  0
    4.0055    1.9304   12.4006 O   0  0  0  0  0  0  0  0  0  0  0  0
    5.8148   -0.5020   12.3139 C   0  0  0  0  0  0  0  0  0  0  0  0
    6.3013   -1.8190   13.4823 C   0  0  0  0  0  0  0  0  0  0  0  0
    7.0981   -2.0388   14.4955 N   0  0  0  0  0  0  0  0  0  0  0  0
    8.1250   -1.1926   14.6023 C   0  0  0  0  0  0  0  0  0  0  0  0
    8.9693   -0.9109   15.5643 N   0  0  0  0  0  0  0  0  0  0  0  0
    9.8434   -0.0241   14.9981 C   0  0  0  0  0  0  0  0  0  0  0  0
    9.4871    0.2832   13.6982 C   0  0  0  0  0  0  0  0  0  0  0  0
    8.2920   -0.4251   13.4427 N   0  0  0  0  0  0  0  0  0  0  0  0
    7.2277   -0.6534   12.2230 C   0  0  0  0  0  0  0  0  0  0  0  0
   -1.6294   -0.1269    8.3450 H   0  0  0  0  0  0  0  0  0  0  0  0
   -2.1969   -0.2145    9.6606 H   0  0  0  0  0  0  0  0  0  0  0  0
   -1.7138   -1.6249    8.6482 H   0  0  0  0  0  0  0  0  0  0  0  0
    1.1860   -1.6024    9.7164 H   0  0  0  0  0  0  0  0  0  0  0  0
    0.5541   -0.9401   11.0670 H   0  0  0  0  0  0  0  0  0  0  0  0
    2.3162    1.6024   10.3996 H   0  0  0  0  0  0  0  0  0  0  0  0
    2.8709    1.3074    7.6289 H   0  0  0  0  0  0  0  0  0  0  0  0
    3.7513    2.1464    8.8507 H   0  0  0  0  0  0  0  0  0  0  0  0
    1.3474    3.2881    9.2030 H   0  0  0  0  0  0  0  0  0  0  0  0
    0.1237    5.0175    9.7431 H   0  0  0  0  0  0  0  0  0  0  0  0
   -2.0813    6.1436    6.5732 H   0  0  0  0  0  0  0  0  0  0  0  0
    0.0149    5.2342    5.4435 H   0  0  0  0  0  0  0  0  0  0  0  0
    4.3387   -0.3926   10.4913 H   0  0  0  0  0  0  0  0  0  0  0  0
    5.7703   -2.7411   13.2168 H   0  0  0  0  0  0  0  0  0  0  0  0
   10.7002    0.3489   15.5456 H   0  0  0  0  0  0  0  0  0  0  0  0
    9.9735    0.9197   12.9811 H   0  0  0  0  0  0  0  0  0  0  0  0
    7.5628   -0.3478   11.2907 H   0  0  0  0  0  0  0  0  0  0  0  0
  1  2  1  0
  2  3  1  0
  3  4  1  0
  4  5  1  0
  5  6  1  0
  6  7  2  0
  6  8  1  0
  8  9  1  0
  9 10  2  0
 10 11  1  0
 11 12  1  0
  3 13  1  0
 13 14  1  0
 14 15  2  0
 14 16  1  0
 16 17  1  0
 17 18  2  0
 18 19  1  0
 19 20  2  0
 20 21  1  0
 21 22  2  0
 22 23  1  0
 23 24  1  0
 12  8  2  0
 24 16  2  0
 23 19  1  0
  1 25  1  0
  1 26  1  0
  1 27  1  0
  2 28  1  0
  2 29  1  0
  3 30  1  0
  4 31  1  0
  4 32  1  0
  5 33  1  0
  9 34  1  0
 11 35  1  0
 12 36  1  0
 13 37  1  0
 17 38  1  0
 21 39  1  0
 22 40  1  0
 24 41  1  0
M  END
>  <Energy>  (301) 
617.99228169024786

>  <compound_id>  (301) 
25663

>  <target_id>  (301) 
1

>  <reference_id>  (301) 
106

>  <inspiration_ids>  (301) 
[106, 99]

>  <energy_score>  (301) 
574.6555170505766

>  <distance_score>  (301) 
8.903085148224424

>  <path>  (301) 
/opt/xchem-fragalysis-2/maxwin/BulkDock/SCRATCH/511017/C25663-P106/C25663-P106.minimised.mol

>  <scratch_subdir>  (301) 
/opt/xchem-fragalysis-2/maxwin/BulkDock/SCRATCH/511017/C25663-P106

>  <fragmenstein_runtime>  (301) 
16.6442289352417

>  <fragmenstein_outcome>  (301) 
too moved

>  <fragmenstein_mode>  (301) 
expansion

>  <fragmenstein_error>  (301) 


$$$$
C25663-P99
     RDKit          3D

 41 43  0  0  0  0  0  0  0  0999 V2000
    1.9549    2.5111   12.1213 C   0  0  0  0  0  0  0  0  0  0  0  0
    2.0252    0.8790   12.1918 C   0  0  0  0  0  0  0  0  0  0  0  0
    0.5730   -0.3297   12.5959 C   0  0  0  0  0  0  0  0  0  0  0  0
   -0.8171   -0.9808   11.1781 C   0  0  0  0  0  0  0  0  0  0  0  0
   -1.8401   -1.2567    9.3564 N   0  0  0  0  0  0  0  0  0  0  0  0
   -3.0553   -0.5622    8.7906 C   0  0  0  0  0  0  0  0  0  0  0  0
   -3.6816    0.3699    9.2062 O   0  0  0  0  0  0  0  0  0  0  0  0
   -3.6572   -1.1672    7.5856 C   0  0  0  0  0  0  0  0  0  0  0  0
   -3.7427   -2.5030    7.1438 C   0  0  0  0  0  0  0  0  0  0  0  0
   -4.5895   -2.6888    6.1240 N   0  0  0  0  0  0  0  0  0  0  0  0
   -5.1603   -1.4916    5.9771 N   0  0  0  0  0  0  0  0  0  0  0  0
   -4.6498   -0.5598    6.8249 C   0  0  0  0  0  0  0  0  0  0  0  0
    0.3914    0.9667   13.7639 N   0  0  0  0  0  0  0  0  0  0  0  0
    0.5570    0.9801   15.2257 C   0  0  0  0  0  0  0  0  0  0  0  0
    0.7739    0.0821   15.9994 O   0  0  0  0  0  0  0  0  0  0  0  0
    0.5633    2.3824   15.8515 C   0  0  0  0  0  0  0  0  0  0  0  0
    1.0487    3.6022   15.1091 C   0  0  0  0  0  0  0  0  0  0  0  0
    1.9385    4.4771   15.4734 N   0  0  0  0  0  0  0  0  0  0  0  0
    2.5017    4.2738   16.6933 C   0  0  0  0  0  0  0  0  0  0  0  0
    3.5436    4.8536   17.2540 N   0  0  0  0  0  0  0  0  0  0  0  0
    3.6157    4.3546   18.5254 C   0  0  0  0  0  0  0  0  0  0  0  0
    2.5957    3.4604   18.7572 C   0  0  0  0  0  0  0  0  0  0  0  0
    1.9419    3.3415   17.5563 N   0  0  0  0  0  0  0  0  0  0  0  0
    0.9885    2.4071   17.1422 C   0  0  0  0  0  0  0  0  0  0  0  0
    2.3894    2.9621   13.0126 H   0  0  0  0  0  0  0  0  0  0  0  0
    2.6058    2.8557   11.3055 H   0  0  0  0  0  0  0  0  0  0  0  0
    0.9625    2.9621   12.0093 H   0  0  0  0  0  0  0  0  0  0  0  0
    2.6292    1.0192   13.0438 H   0  0  0  0  0  0  0  0  0  0  0  0
    2.6347    0.5180   11.3617 H   0  0  0  0  0  0  0  0  0  0  0  0
    0.9592   -1.1212   13.2031 H   0  0  0  0  0  0  0  0  0  0  0  0
   -1.5028   -1.1616   11.9886 H   0  0  0  0  0  0  0  0  0  0  0  0
    0.0828   -1.5268   10.8976 H   0  0  0  0  0  0  0  0  0  0  0  0
   -1.5294   -1.9411    8.7110 H   0  0  0  0  0  0  0  0  0  0  0  0
   -3.2711   -3.3843    7.5476 H   0  0  0  0  0  0  0  0  0  0  0  0
   -5.9131   -1.3904    5.3036 H   0  0  0  0  0  0  0  0  0  0  0  0
   -5.0709    0.4331    6.8778 H   0  0  0  0  0  0  0  0  0  0  0  0
    0.1374    1.8926   13.4514 H   0  0  0  0  0  0  0  0  0  0  0  0
    0.5474    3.7823   14.1468 H   0  0  0  0  0  0  0  0  0  0  0  0
    4.3883    4.6800   19.2104 H   0  0  0  0  0  0  0  0  0  0  0  0
    2.3233    2.8800   19.6265 H   0  0  0  0  0  0  0  0  0  0  0  0
    0.8262    1.5876   17.8337 H   0  0  0  0  0  0  0  0  0  0  0  0
  1  2  1  0
  2  3  1  0
  3  4  1  0
  4  5  1  0
  5  6  1  0
  6  7  2  0
  6  8  1  0
  8  9  1  0
  9 10  2  0
 10 11  1  0
 11 12  1  0
  3 13  1  0
 13 14  1  0
 14 15  2  0
 14 16  1  0
 16 17  1  0
 17 18  2  0
 18 19  1  0
 19 20  2  0
 20 21  1  0
 21 22  2  0
 22 23  1  0
 23 24  1  0
 12  8  2  0
 24 16  2  0
 23 19  1  0
  1 25  1  0
  1 26  1  0
  1 27  1  0
  2 28  1  0
  2 29  1  0
  3 30  1  0
  4 31  1  0
  4 32  1  0
  5 33  1  0
  9 34  1  0
 11 35  1  0
 12 36  1  0
 13 37  1  0
 17 38  1  0
 21 39  1  0
 22 40  1  0
 24 41  1  0
M  END
>  <Energy>  (302) 
435.90703482241184

>  <compound_id>  (302) 
25663

>  <target_id>  (302) 
1

>  <reference_id>  (302) 
99

>  <inspiration_ids>  (302) 
[106, 99]

>  <energy_score>  (302) 
392.57027018274295

>  <distance_score>  (302) 
9.56332016613383

>  <path>  (302) 
/opt/xchem-fragalysis-2/maxwin/BulkDock/SCRATCH/511017/C25663-P99/C25663-P99.minimised.mol

>  <scratch_subdir>  (302) 
/opt/xchem-fragalysis-2/maxwin/BulkDock/SCRATCH/511017/C25663-P99

>  <fragmenstein_runtime>  (302) 
16.959574699401855

>  <fragmenstein_outcome>  (302) 
too moved

>  <fragmenstein_mode>  (302) 
expansion

>  <fragmenstein_error>  (302) 


$$$$
C25665-P106
     RDKit          3D

 42 44  0  0  0  0  0  0  0  0999 V2000
   -0.1575   -0.6155   13.0212 C   0  0  0  0  0  0  0  0  0  0  0  0
    1.2989   -1.0982   12.5970 N   0  0  0  0  0  0  0  0  0  0  0  0
    0.2443   -1.1467   10.7563 C   0  0  0  0  0  0  0  0  0  0  0  0
   -1.4981   -0.9072    9.4186 C   0  0  0  0  0  0  0  0  0  0  0  0
   -1.6096   -1.4629    7.9589 O   0  0  0  0  0  0  0  0  0  0  0  0
   -2.8961    0.0728    9.0962 C   0  0  0  0  0  0  0  0  0  0  0  0
   -4.0546   -0.4411    8.2859 N   0  0  0  0  0  0  0  0  0  0  0  0
   -5.1514    0.2587    7.6495 C   0  0  0  0  0  0  0  0  0  0  0  0
   -5.3700    1.4316    7.5392 O   0  0  0  0  0  0  0  0  0  0  0  0
   -6.2086   -0.6164    7.1465 C   0  0  0  0  0  0  0  0  0  0  0  0
   -6.8555   -0.6250    5.8880 C   0  0  0  0  0  0  0  0  0  0  0  0
   -7.8589   -1.5063    5.8155 N   0  0  0  0  0  0  0  0  0  0  0  0
   -7.9581   -1.9711    7.0688 N   0  0  0  0  0  0  0  0  0  0  0  0
   -7.0228   -1.4288    7.8998 C   0  0  0  0  0  0  0  0  0  0  0  0
    2.2732   -2.7439   13.2503 C   0  0  0  0  0  0  0  0  0  0  0  0
    1.8536   -3.6423   13.9722 O   0  0  0  0  0  0  0  0  0  0  0  0
    4.2185   -3.0670   12.8418 C   0  0  0  0  0  0  0  0  0  0  0  0
    4.9594   -3.0074   14.5415 C   0  0  0  0  0  0  0  0  0  0  0  0
    5.8894   -2.5028   15.1813 N   0  0  0  0  0  0  0  0  0  0  0  0
    6.8172   -1.7393   14.7948 C   0  0  0  0  0  0  0  0  0  0  0  0
    7.6297   -0.9084   15.4025 N   0  0  0  0  0  0  0  0  0  0  0  0
    8.7762   -1.4111   14.9826 C   0  0  0  0  0  0  0  0  0  0  0  0
    8.3364   -2.5418   14.3190 C   0  0  0  0  0  0  0  0  0  0  0  0
    7.1504   -2.1422   13.5989 N   0  0  0  0  0  0  0  0  0  0  0  0
    5.8152   -2.5231   12.6646 C   0  0  0  0  0  0  0  0  0  0  0  0
   -0.9587   -0.3104   12.3625 H   0  0  0  0  0  0  0  0  0  0  0  0
   -0.5530   -1.3947   13.6948 H   0  0  0  0  0  0  0  0  0  0  0  0
    0.0298    0.1553   13.7838 H   0  0  0  0  0  0  0  0  0  0  0  0
    0.8601   -1.8677   10.2216 H   0  0  0  0  0  0  0  0  0  0  0  0
    0.9803   -0.6198   10.1449 H   0  0  0  0  0  0  0  0  0  0  0  0
   -2.1993   -1.7520    9.4014 H   0  0  0  0  0  0  0  0  0  0  0  0
   -0.8162   -1.1845    7.5081 H   0  0  0  0  0  0  0  0  0  0  0  0
   -3.5478    0.1508    9.9366 H   0  0  0  0  0  0  0  0  0  0  0  0
   -2.6276    1.0620    8.7600 H   0  0  0  0  0  0  0  0  0  0  0  0
   -4.2378   -1.4359    8.2592 H   0  0  0  0  0  0  0  0  0  0  0  0
   -6.6306   -0.0274    5.0142 H   0  0  0  0  0  0  0  0  0  0  0  0
   -8.7190   -2.6078    7.2943 H   0  0  0  0  0  0  0  0  0  0  0  0
   -7.0564   -1.5886    8.9568 H   0  0  0  0  0  0  0  0  0  0  0  0
    4.4762   -3.7649   15.2236 H   0  0  0  0  0  0  0  0  0  0  0  0
    9.7308   -1.1907   15.4392 H   0  0  0  0  0  0  0  0  0  0  0  0
    8.6455   -3.5058   14.6463 H   0  0  0  0  0  0  0  0  0  0  0  0
    5.9331   -1.4887   12.2310 H   0  0  0  0  0  0  0  0  0  0  0  0
  1  2  1  0
  2  3  1  0
  3  4  1  0
  4  5  1  0
  4  6  1  0
  6  7  1  0
  7  8  1  0
  8  9  2  0
  8 10  1  0
 10 11  1  0
 11 12  2  0
 12 13  1  0
 13 14  1  0
  2 15  1  0
 15 16  2  0
 15 17  1  0
 17 18  1  0
 18 19  2  0
 19 20  1  0
 20 21  2  0
 21 22  1  0
 22 23  2  0
 23 24  1  0
 24 25  1  0
 14 10  2  0
 25 17  2  0
 24 20  1  0
  1 26  1  0
  1 27  1  0
  1 28  1  0
  3 29  1  0
  3 30  1  0
  4 31  1  0
  5 32  1  0
  6 33  1  0
  6 34  1  0
  7 35  1  0
 11 36  1  0
 13 37  1  0
 14 38  1  0
 18 39  1  0
 22 40  1  0
 23 41  1  0
 25 42  1  0
M  END
>  <Energy>  (303) 
1077.5382695652891

>  <compound_id>  (303) 
25665

>  <target_id>  (303) 
1

>  <reference_id>  (303) 
106

>  <inspiration_ids>  (303) 
[106, 99]

>  <energy_score>  (303) 
1007.4663717375947

>  <distance_score>  (303) 
6.362192846712855

>  <path>  (303) 
/opt/xchem-fragalysis-2/maxwin/BulkDock/SCRATCH/511017/C25665-P106/C25665-P106.minimised.mol

>  <scratch_subdir>  (303) 
/opt/xchem-fragalysis-2/maxwin/BulkDock/SCRATCH/511017/C25665-P106

>  <fragmenstein_runtime>  (303) 
16.151556253433228

>  <fragmenstein_outcome>  (303) 
too moved

>  <fragmenstein_mode>  (303) 
expansion

>  <fragmenstein_error>  (303) 


$$$$
C25665-P99
     RDKit          3D

 42 44  0  0  0  0  0  0  0  0999 V2000
   -0.1484   -1.0287   11.7621 C   0  0  0  0  0  0  0  0  0  0  0  0
    1.2669   -1.2087   11.3673 N   0  0  0  0  0  0  0  0  0  0  0  0
    0.3229   -1.2375    9.6187 C   0  0  0  0  0  0  0  0  0  0  0  0
   -1.5960   -1.1777    8.6446 C   0  0  0  0  0  0  0  0  0  0  0  0
   -2.4034    0.1278    8.4443 O   0  0  0  0  0  0  0  0  0  0  0  0
   -2.9804   -2.0598    8.5121 C   0  0  0  0  0  0  0  0  0  0  0  0
   -3.7665   -2.2472    7.2968 N   0  0  0  0  0  0  0  0  0  0  0  0
   -4.5920   -1.3447    6.5691 C   0  0  0  0  0  0  0  0  0  0  0  0
   -4.7904   -0.1788    6.7176 O   0  0  0  0  0  0  0  0  0  0  0  0
   -5.3463   -2.0792    5.5598 C   0  0  0  0  0  0  0  0  0  0  0  0
   -5.5515   -1.8433    4.1892 C   0  0  0  0  0  0  0  0  0  0  0  0
   -6.3671   -2.7457    3.6261 N   0  0  0  0  0  0  0  0  0  0  0  0
   -6.7794   -3.4964    4.6643 N   0  0  0  0  0  0  0  0  0  0  0  0
   -6.1845   -3.1475    5.8378 C   0  0  0  0  0  0  0  0  0  0  0  0
    2.7470   -0.0340   11.4862 C   0  0  0  0  0  0  0  0  0  0  0  0
    2.5442    1.1107   11.8599 O   0  0  0  0  0  0  0  0  0  0  0  0
    4.7810   -0.3434   11.3239 C   0  0  0  0  0  0  0  0  0  0  0  0
    5.6439   -1.8820   12.2368 C   0  0  0  0  0  0  0  0  0  0  0  0
    6.1693   -2.0672   13.5101 N   0  0  0  0  0  0  0  0  0  0  0  0
    7.1578   -1.2620   13.7975 C   0  0  0  0  0  0  0  0  0  0  0  0
    7.8846   -1.0370   14.8658 N   0  0  0  0  0  0  0  0  0  0  0  0
    8.7305   -0.0202   14.5152 C   0  0  0  0  0  0  0  0  0  0  0  0
    8.4333    0.4188   13.2335 C   0  0  0  0  0  0  0  0  0  0  0  0
    7.3509   -0.4092   12.7566 N   0  0  0  0  0  0  0  0  0  0  0  0
    6.3956   -0.5203   11.5881 C   0  0  0  0  0  0  0  0  0  0  0  0
   -0.9150   -1.1822   12.4905 H   0  0  0  0  0  0  0  0  0  0  0  0
    0.2818   -0.4939   12.6354 H   0  0  0  0  0  0  0  0  0  0  0  0
   -0.9087   -0.4824   11.3159 H   0  0  0  0  0  0  0  0  0  0  0  0
    1.1365   -0.6324    9.1799 H   0  0  0  0  0  0  0  0  0  0  0  0
    0.5255   -2.0427    8.9692 H   0  0  0  0  0  0  0  0  0  0  0  0
   -1.4749   -1.2766    7.5519 H   0  0  0  0  0  0  0  0  0  0  0  0
   -3.0555    0.0304    7.7211 H   0  0  0  0  0  0  0  0  0  0  0  0
   -3.7652   -1.5325    9.0582 H   0  0  0  0  0  0  0  0  0  0  0  0
   -2.9405   -3.0786    8.8068 H   0  0  0  0  0  0  0  0  0  0  0  0
   -3.9077   -3.1863    6.9383 H   0  0  0  0  0  0  0  0  0  0  0  0
   -5.1300   -1.0579    3.5743 H   0  0  0  0  0  0  0  0  0  0  0  0
   -7.4667   -4.2304    4.5093 H   0  0  0  0  0  0  0  0  0  0  0  0
   -6.4385   -3.6511    6.7596 H   0  0  0  0  0  0  0  0  0  0  0  0
    5.0115   -2.7899   11.9469 H   0  0  0  0  0  0  0  0  0  0  0  0
    9.5100    0.3334   15.1750 H   0  0  0  0  0  0  0  0  0  0  0  0
    8.9394    1.1093   12.5799 H   0  0  0  0  0  0  0  0  0  0  0  0
    6.9776   -0.3538   10.7014 H   0  0  0  0  0  0  0  0  0  0  0  0
  1  2  1  0
  2  3  1  0
  3  4  1  0
  4  5  1  0
  4  6  1  0
  6  7  1  0
  7  8  1  0
  8  9  2  0
  8 10  1  0
 10 11  1  0
 11 12  2  0
 12 13  1  0
 13 14  1  0
  2 15  1  0
 15 16  2  0
 15 17  1  0
 17 18  1  0
 18 19  2  0
 19 20  1  0
 20 21  2  0
 21 22  1  0
 22 23  2  0
 23 24  1  0
 24 25  1  0
 14 10  2  0
 25 17  2  0
 24 20  1  0
  1 26  1  0
  1 27  1  0
  1 28  1  0
  3 29  1  0
  3 30  1  0
  4 31  1  0
  5 32  1  0
  6 33  1  0
  6 34  1  0
  7 35  1  0
 11 36  1  0
 13 37  1  0
 14 38  1  0
 18 39  1  0
 22 40  1  0
 23 41  1  0
 25 42  1  0
M  END
>  <Energy>  (304) 
897.98759358498774

>  <compound_id>  (304) 
25665

>  <target_id>  (304) 
1

>  <reference_id>  (304) 
99

>  <inspiration_ids>  (304) 
[106, 99]

>  <energy_score>  (304) 
827.915695757308

>  <distance_score>  (304) 
6.396592586498862

>  <path>  (304) 
/opt/xchem-fragalysis-2/maxwin/BulkDock/SCRATCH/511017/C25665-P99/C25665-P99.minimised.mol

>  <scratch_subdir>  (304) 
/opt/xchem-fragalysis-2/maxwin/BulkDock/SCRATCH/511017/C25665-P99

>  <fragmenstein_runtime>  (304) 
17.239335775375366

>  <fragmenstein_outcome>  (304) 
too moved

>  <fragmenstein_mode>  (304) 
expansion

>  <fragmenstein_error>  (304) 


$$$$
C25666-P106
     RDKit          3D

 41 43  0  0  0  0  0  0  0  0999 V2000
   -3.5393   -0.5713    9.2899 C   0  0  0  0  0  0  0  0  0  0  0  0
   -2.9659   -1.1394    8.1603 N   0  0  0  0  0  0  0  0  0  0  0  0
   -1.4009   -0.9335    9.1687 C   0  0  0  0  0  0  0  0  0  0  0  0
    0.6284   -1.2371   10.0570 C   0  0  0  0  0  0  0  0  0  0  0  0
    2.2190   -2.6319   10.5023 N   0  0  0  0  0  0  0  0  0  0  0  0
    1.4938   -1.4376   10.7928 C   0  0  0  0  0  0  0  0  0  0  0  0
    3.4762   -2.9338   11.9173 C   0  0  0  0  0  0  0  0  0  0  0  0
    2.9351   -3.6760   12.7687 O   0  0  0  0  0  0  0  0  0  0  0  0
    5.3439   -2.6775   12.4405 C   0  0  0  0  0  0  0  0  0  0  0  0
    5.9526   -2.7349   13.8551 C   0  0  0  0  0  0  0  0  0  0  0  0
    7.1528   -2.0957   13.9606 N   0  0  0  0  0  0  0  0  0  0  0  0
    7.9936   -2.0821   15.0382 C   0  0  0  0  0  0  0  0  0  0  0  0
    8.9848   -1.2036   15.2119 C   0  0  0  0  0  0  0  0  0  0  0  0
    9.0159   -0.1961   14.1458 C   0  0  0  0  0  0  0  0  0  0  0  0
    8.2220   -0.1964   13.1004 N   0  0  0  0  0  0  0  0  0  0  0  0
    7.3025   -1.2413   12.9291 C   0  0  0  0  0  0  0  0  0  0  0  0
    6.3460   -1.4455   12.0692 N   0  0  0  0  0  0  0  0  0  0  0  0
   -3.6843   -2.3227    7.7861 C   0  0  0  0  0  0  0  0  0  0  0  0
   -3.5127   -3.4643    8.0928 O   0  0  0  0  0  0  0  0  0  0  0  0
   -4.9361   -2.1327    6.9854 C   0  0  0  0  0  0  0  0  0  0  0  0
   -5.7626   -0.9498    6.8939 C   0  0  0  0  0  0  0  0  0  0  0  0
   -6.9927   -1.1666    6.4233 N   0  0  0  0  0  0  0  0  0  0  0  0
   -7.0308   -2.4931    6.2601 N   0  0  0  0  0  0  0  0  0  0  0  0
   -5.8553   -3.1029    6.5966 C   0  0  0  0  0  0  0  0  0  0  0  0
   -4.3636   -0.0375    8.7854 H   0  0  0  0  0  0  0  0  0  0  0  0
   -4.2793   -1.1408    9.8038 H   0  0  0  0  0  0  0  0  0  0  0  0
   -3.1902    0.3989    9.5621 H   0  0  0  0  0  0  0  0  0  0  0  0
   -1.5736    0.0942    8.8910 H   0  0  0  0  0  0  0  0  0  0  0  0
   -1.2746   -1.5943    8.3023 H   0  0  0  0  0  0  0  0  0  0  0  0
    0.6055   -2.0902    9.2274 H   0  0  0  0  0  0  0  0  0  0  0  0
   -0.1403   -1.1548   10.9257 H   0  0  0  0  0  0  0  0  0  0  0  0
    1.9070   -1.0065   11.7277 H   0  0  0  0  0  0  0  0  0  0  0  0
    2.0052   -1.8517    9.8910 H   0  0  0  0  0  0  0  0  0  0  0  0
    2.0709   -0.4152   10.3230 H   0  0  0  0  0  0  0  0  0  0  0  0
    5.4770   -3.0320   14.7751 H   0  0  0  0  0  0  0  0  0  0  0  0
    7.7417   -2.9125   15.6294 H   0  0  0  0  0  0  0  0  0  0  0  0
    9.7468   -1.2007   15.9676 H   0  0  0  0  0  0  0  0  0  0  0  0
    9.7780    0.5937   14.2511 H   0  0  0  0  0  0  0  0  0  0  0  0
   -5.5070    0.0676    7.1453 H   0  0  0  0  0  0  0  0  0  0  0  0
   -7.8962   -2.9237    5.9453 H   0  0  0  0  0  0  0  0  0  0  0  0
   -5.8195   -4.1707    6.5874 H   0  0  0  0  0  0  0  0  0  0  0  0
  1  2  1  0
  2  3  1  0
  3  4  1  0
  4  5  1  0
  5  6  1  0
  5  7  1  0
  7  8  2  0
  7  9  1  0
  9 10  2  0
 10 11  1  0
 11 12  1  0
 12 13  2  0
 13 14  1  0
 14 15  2  0
 15 16  1  0
 16 17  2  0
  2 18  1  0
 18 19  2  0
 18 20  1  0
 20 21  1  0
 21 22  2  0
 22 23  1  0
 23 24  1  0
 17  9  1  0
 24 20  2  0
 16 11  1  0
  1 25  1  0
  1 26  1  0
  1 27  1  0
  3 28  1  0
  3 29  1  0
  4 30  1  0
  4 31  1  0
  6 32  1  0
  6 33  1  0
  6 34  1  0
 10 35  1  0
 12 36  1  0
 13 37  1  0
 14 38  1  0
 21 39  1  0
 23 40  1  0
 24 41  1  0
M  END
>  <Energy>  (305) 
1443.4396162945468

>  <compound_id>  (305) 
25666

>  <target_id>  (305) 
1

>  <reference_id>  (305) 
106

>  <inspiration_ids>  (305) 
[106, 99]

>  <energy_score>  (305) 
1334.6550961037544

>  <distance_score>  (305) 
5.252314203769757

>  <path>  (305) 
/opt/xchem-fragalysis-2/maxwin/BulkDock/SCRATCH/511017/C25666-P106/C25666-P106.minimised.mol

>  <scratch_subdir>  (305) 
/opt/xchem-fragalysis-2/maxwin/BulkDock/SCRATCH/511017/C25666-P106

>  <fragmenstein_runtime>  (305) 
8.133849620819092

>  <fragmenstein_outcome>  (305) 
too moved

>  <fragmenstein_mode>  (305) 
expansion

>  <fragmenstein_error>  (305) 


$$$$
C25666-P99
     RDKit          3D

 41 43  0  0  0  0  0  0  0  0999 V2000
   -4.8414   -0.2638    6.2934 C   0  0  0  0  0  0  0  0  0  0  0  0
   -4.8996   -0.9686    7.6065 N   0  0  0  0  0  0  0  0  0  0  0  0
   -3.5362   -0.1960    7.8290 C   0  0  0  0  0  0  0  0  0  0  0  0
   -2.4923   -0.9899    9.2168 C   0  0  0  0  0  0  0  0  0  0  0  0
   -1.1576   -1.0691   10.8006 N   0  0  0  0  0  0  0  0  0  0  0  0
   -1.6438   -1.1338    8.8263 C   0  0  0  0  0  0  0  0  0  0  0  0
    0.7171   -1.2876   10.9890 C   0  0  0  0  0  0  0  0  0  0  0  0
    0.9048   -2.3121   11.0723 O   0  0  0  0  0  0  0  0  0  0  0  0
    2.4177   -0.4024   11.3116 C   0  0  0  0  0  0  0  0  0  0  0  0
    3.9702    0.1406   10.9654 C   0  0  0  0  0  0  0  0  0  0  0  0
    5.3900   -0.6424   11.8356 N   0  0  0  0  0  0  0  0  0  0  0  0
    6.7978   -0.5441   12.0216 C   0  0  0  0  0  0  0  0  0  0  0  0
    7.3766   -0.8700   13.1730 C   0  0  0  0  0  0  0  0  0  0  0  0
    6.7095   -1.8145   13.9695 C   0  0  0  0  0  0  0  0  0  0  0  0
    5.7203   -2.4999   13.5466 N   0  0  0  0  0  0  0  0  0  0  0  0
    4.9876   -2.3677   12.0573 C   0  0  0  0  0  0  0  0  0  0  0  0
    3.4867   -2.0548   11.3659 N   0  0  0  0  0  0  0  0  0  0  0  0
   -6.1791   -0.7843    8.1994 C   0  0  0  0  0  0  0  0  0  0  0  0
   -6.5740    0.0607    8.9529 O   0  0  0  0  0  0  0  0  0  0  0  0
   -7.1377   -1.7748    7.6802 C   0  0  0  0  0  0  0  0  0  0  0  0
   -6.9454   -2.9050    6.8462 C   0  0  0  0  0  0  0  0  0  0  0  0
   -8.0716   -3.5797    6.6060 N   0  0  0  0  0  0  0  0  0  0  0  0
   -9.0024   -2.8945    7.2931 N   0  0  0  0  0  0  0  0  0  0  0  0
   -8.5008   -1.7866    7.9097 C   0  0  0  0  0  0  0  0  0  0  0  0
   -4.0533   -0.5930    5.6019 H   0  0  0  0  0  0  0  0  0  0  0  0
   -5.7368   -0.5877    5.7400 H   0  0  0  0  0  0  0  0  0  0  0  0
   -5.0363    0.8111    6.3840 H   0  0  0  0  0  0  0  0  0  0  0  0
   -2.8820   -0.3260    6.9585 H   0  0  0  0  0  0  0  0  0  0  0  0
   -3.7327    0.8449    8.1221 H   0  0  0  0  0  0  0  0  0  0  0  0
   -3.3605   -1.8493    9.2455 H   0  0  0  0  0  0  0  0  0  0  0  0
   -3.0757   -0.0558    9.6856 H   0  0  0  0  0  0  0  0  0  0  0  0
   -1.3451   -1.3501    7.7555 H   0  0  0  0  0  0  0  0  0  0  0  0
   -2.0422   -2.3200    8.4233 H   0  0  0  0  0  0  0  0  0  0  0  0
   -1.6393   -0.0570    8.1974 H   0  0  0  0  0  0  0  0  0  0  0  0
    4.1146    1.0642   10.4116 H   0  0  0  0  0  0  0  0  0  0  0  0
    7.3287   -0.0418   11.2616 H   0  0  0  0  0  0  0  0  0  0  0  0
    8.2762   -0.4467   13.6007 H   0  0  0  0  0  0  0  0  0  0  0  0
    7.1597   -1.9981   14.9477 H   0  0  0  0  0  0  0  0  0  0  0  0
   -6.0219   -3.2733    6.4193 H   0  0  0  0  0  0  0  0  0  0  0  0
   -9.9611   -3.2327    7.3032 H   0  0  0  0  0  0  0  0  0  0  0  0
   -9.1397   -1.1334    8.4872 H   0  0  0  0  0  0  0  0  0  0  0  0
  1  2  1  0
  2  3  1  0
  3  4  1  0
  4  5  1  0
  5  6  1  0
  5  7  1  0
  7  8  2  0
  7  9  1  0
  9 10  2  0
 10 11  1  0
 11 12  1  0
 12 13  2  0
 13 14  1  0
 14 15  2  0
 15 16  1  0
 16 17  2  0
  2 18  1  0
 18 19  2  0
 18 20  1  0
 20 21  1  0
 21 22  2  0
 22 23  1  0
 23 24  1  0
 17  9  1  0
 24 20  2  0
 16 11  1  0
  1 25  1  0
  1 26  1  0
  1 27  1  0
  3 28  1  0
  3 29  1  0
  4 30  1  0
  4 31  1  0
  6 32  1  0
  6 33  1  0
  6 34  1  0
 10 35  1  0
 12 36  1  0
 13 37  1  0
 14 38  1  0
 21 39  1  0
 23 40  1  0
 24 41  1  0
M  END
>  <Energy>  (306) 
1680.9266895429771

>  <compound_id>  (306) 
25666

>  <target_id>  (306) 
1

>  <reference_id>  (306) 
99

>  <inspiration_ids>  (306) 
[106, 99]

>  <energy_score>  (306) 
1572.142169352186

>  <distance_score>  (306) 
6.455111863163494

>  <path>  (306) 
/opt/xchem-fragalysis-2/maxwin/BulkDock/SCRATCH/511017/C25666-P99/C25666-P99.minimised.mol

>  <scratch_subdir>  (306) 
/opt/xchem-fragalysis-2/maxwin/BulkDock/SCRATCH/511017/C25666-P99

>  <fragmenstein_runtime>  (306) 
13.992956638336182

>  <fragmenstein_outcome>  (306) 
too moved

>  <fragmenstein_mode>  (306) 
expansion

>  <fragmenstein_error>  (306) 


$$$$
C25667-P106
     RDKit          3D

 42 44  0  0  0  0  0  0  0  0999 V2000
   -1.6216   -1.6424    8.5012 C   0  0  0  0  0  0  0  0  0  0  0  0
   -1.6990   -0.4095    9.0564 N   0  0  0  0  0  0  0  0  0  0  0  0
   -0.0120   -1.1139   10.2691 C   0  0  0  0  0  0  0  0  0  0  0  0
    1.8977   -1.0537   11.2783 C   0  0  0  0  0  0  0  0  0  0  0  0
    1.3314   -0.5673   12.7240 O   0  0  0  0  0  0  0  0  0  0  0  0
    3.9056   -1.7208   11.5674 C   0  0  0  0  0  0  0  0  0  0  0  0
    5.7546   -1.3279   12.2947 N   0  0  0  0  0  0  0  0  0  0  0  0
    6.5455   -1.9280   13.6347 C   0  0  0  0  0  0  0  0  0  0  0  0
    6.1340   -2.7301   14.4341 O   0  0  0  0  0  0  0  0  0  0  0  0
    7.9799   -1.3819   14.1106 C   0  0  0  0  0  0  0  0  0  0  0  0
    8.7965   -0.1463   13.8459 C   0  0  0  0  0  0  0  0  0  0  0  0
    9.8839    0.3443   14.3591 N   0  0  0  0  0  0  0  0  0  0  0  0
   10.5729   -0.5445   15.1117 C   0  0  0  0  0  0  0  0  0  0  0  0
   11.7574   -0.4357   15.6709 N   0  0  0  0  0  0  0  0  0  0  0  0
   12.1367   -1.7143   15.9796 C   0  0  0  0  0  0  0  0  0  0  0  0
   11.1362   -2.6049   15.6740 C   0  0  0  0  0  0  0  0  0  0  0  0
   10.0901   -1.8371   15.2246 N   0  0  0  0  0  0  0  0  0  0  0  0
    8.7806   -2.1856   14.8463 C   0  0  0  0  0  0  0  0  0  0  0  0
   -3.4054   -0.0874    9.4882 C   0  0  0  0  0  0  0  0  0  0  0  0
   -4.0042   -0.2841   10.5243 O   0  0  0  0  0  0  0  0  0  0  0  0
   -4.3838    0.3869    8.4195 C   0  0  0  0  0  0  0  0  0  0  0  0
   -4.5041   -0.2027    7.1435 C   0  0  0  0  0  0  0  0  0  0  0  0
   -5.5978    0.0661    6.4260 N   0  0  0  0  0  0  0  0  0  0  0  0
   -6.4288    0.4826    7.3567 N   0  0  0  0  0  0  0  0  0  0  0  0
   -5.7972    0.4958    8.5631 C   0  0  0  0  0  0  0  0  0  0  0  0
   -2.4039   -2.3491    8.8214 H   0  0  0  0  0  0  0  0  0  0  0  0
   -1.2834   -1.5626    7.4676 H   0  0  0  0  0  0  0  0  0  0  0  0
   -2.5208   -1.4553    7.9031 H   0  0  0  0  0  0  0  0  0  0  0  0
    0.7496   -0.4523    9.8876 H   0  0  0  0  0  0  0  0  0  0  0  0
   -0.4926   -0.9476   11.2529 H   0  0  0  0  0  0  0  0  0  0  0  0
    2.5519   -0.1160   11.0616 H   0  0  0  0  0  0  0  0  0  0  0  0
    1.1759   -1.3037   13.3316 H   0  0  0  0  0  0  0  0  0  0  0  0
    4.3501   -0.7470   11.1333 H   0  0  0  0  0  0  0  0  0  0  0  0
    3.8280   -2.8251   11.4993 H   0  0  0  0  0  0  0  0  0  0  0  0
    6.3252   -0.6048   11.8616 H   0  0  0  0  0  0  0  0  0  0  0  0
    8.4997    0.3111   12.9186 H   0  0  0  0  0  0  0  0  0  0  0  0
   13.1136   -1.9290   16.3951 H   0  0  0  0  0  0  0  0  0  0  0  0
   11.0858   -3.6821   15.7475 H   0  0  0  0  0  0  0  0  0  0  0  0
    8.4882   -3.2045   14.9887 H   0  0  0  0  0  0  0  0  0  0  0  0
   -3.6814   -0.7069    6.6919 H   0  0  0  0  0  0  0  0  0  0  0  0
   -7.4167    0.5902    7.1400 H   0  0  0  0  0  0  0  0  0  0  0  0
   -6.4616    0.4539    9.4109 H   0  0  0  0  0  0  0  0  0  0  0  0
  1  2  1  0
  2  3  1  0
  3  4  1  0
  4  5  1  0
  4  6  1  0
  6  7  1  0
  7  8  1  0
  8  9  2  0
  8 10  1  0
 10 11  1  0
 11 12  2  0
 12 13  1  0
 13 14  2  0
 14 15  1  0
 15 16  2  0
 16 17  1  0
 17 18  1  0
  2 19  1  0
 19 20  2  0
 19 21  1  0
 21 22  1  0
 22 23  2  0
 23 24  1  0
 24 25  1  0
 18 10  2  0
 25 21  2  0
 17 13  1  0
  1 26  1  0
  1 27  1  0
  1 28  1  0
  3 29  1  0
  3 30  1  0
  4 31  1  0
  5 32  1  0
  6 33  1  0
  6 34  1  0
  7 35  1  0
 11 36  1  0
 15 37  1  0
 16 38  1  0
 18 39  1  0
 22 40  1  0
 24 41  1  0
 25 42  1  0
M  END
>  <Energy>  (307) 
923.94988938595179

>  <compound_id>  (307) 
25667

>  <target_id>  (307) 
1

>  <reference_id>  (307) 
106

>  <inspiration_ids>  (307) 
[106, 99]

>  <energy_score>  (307) 
854.6493037950169

>  <distance_score>  (307) 
5.111328437327063

>  <path>  (307) 
/opt/xchem-fragalysis-2/maxwin/BulkDock/SCRATCH/511017/C25667-P106/C25667-P106.minimised.mol

>  <scratch_subdir>  (307) 
/opt/xchem-fragalysis-2/maxwin/BulkDock/SCRATCH/511017/C25667-P106

>  <fragmenstein_runtime>  (307) 
12.120717763900757

>  <fragmenstein_outcome>  (307) 
too moved

>  <fragmenstein_mode>  (307) 
expansion

>  <fragmenstein_error>  (307) 


$$$$
C25667-P99
     RDKit          3D

 42 44  0  0  0  0  0  0  0  0999 V2000
   -3.6333   -0.7362    8.4943 C   0  0  0  0  0  0  0  0  0  0  0  0
   -2.9328   -1.8568    7.7252 N   0  0  0  0  0  0  0  0  0  0  0  0
   -1.5216   -1.2431    8.5955 C   0  0  0  0  0  0  0  0  0  0  0  0
    0.4416   -1.4714    9.3569 C   0  0  0  0  0  0  0  0  0  0  0  0
    1.1236   -2.4553    8.1421 O   0  0  0  0  0  0  0  0  0  0  0  0
    1.6467   -1.6959   10.8408 C   0  0  0  0  0  0  0  0  0  0  0  0
    3.3279   -1.7493   11.2345 N   0  0  0  0  0  0  0  0  0  0  0  0
    4.1803   -2.8440   11.7974 C   0  0  0  0  0  0  0  0  0  0  0  0
    3.9235   -3.9948   12.0139 O   0  0  0  0  0  0  0  0  0  0  0  0
    5.8644   -1.9661   12.3150 C   0  0  0  0  0  0  0  0  0  0  0  0
    6.7346   -0.8178   11.8537 C   0  0  0  0  0  0  0  0  0  0  0  0
    7.5655   -0.0406   12.5100 N   0  0  0  0  0  0  0  0  0  0  0  0
    8.0401   -0.3986   13.7214 C   0  0  0  0  0  0  0  0  0  0  0  0
    8.8984    0.1500   14.5544 N   0  0  0  0  0  0  0  0  0  0  0  0
    9.2522   -0.8986   15.3370 C   0  0  0  0  0  0  0  0  0  0  0  0
    8.4116   -1.9562   15.0841 C   0  0  0  0  0  0  0  0  0  0  0  0
    7.4834   -1.5138   14.2094 N   0  0  0  0  0  0  0  0  0  0  0  0
    6.3109   -2.0509   13.6862 C   0  0  0  0  0  0  0  0  0  0  0  0
   -3.2838   -1.7821    6.3384 C   0  0  0  0  0  0  0  0  0  0  0  0
   -2.7541   -1.2071    5.4316 O   0  0  0  0  0  0  0  0  0  0  0  0
   -4.5642   -2.4402    5.9906 C   0  0  0  0  0  0  0  0  0  0  0  0
   -5.0329   -2.7406    4.6840 C   0  0  0  0  0  0  0  0  0  0  0  0
   -6.2679   -3.2476    4.6520 N   0  0  0  0  0  0  0  0  0  0  0  0
   -6.6366   -3.2338    5.9411 N   0  0  0  0  0  0  0  0  0  0  0  0
   -5.6869   -2.6813    6.7550 C   0  0  0  0  0  0  0  0  0  0  0  0
   -4.3117   -1.1892    9.2078 H   0  0  0  0  0  0  0  0  0  0  0  0
   -3.1746    0.1868    8.8531 H   0  0  0  0  0  0  0  0  0  0  0  0
   -4.3506   -0.2971    7.7811 H   0  0  0  0  0  0  0  0  0  0  0  0
   -1.6491   -0.3138    8.0660 H   0  0  0  0  0  0  0  0  0  0  0  0
   -2.0317   -1.3809    9.4552 H   0  0  0  0  0  0  0  0  0  0  0  0
    1.0897   -0.6052    9.1563 H   0  0  0  0  0  0  0  0  0  0  0  0
    1.1714   -1.9134    7.3324 H   0  0  0  0  0  0  0  0  0  0  0  0
    0.8775   -1.4417   11.5863 H   0  0  0  0  0  0  0  0  0  0  0  0
    1.9310   -0.7449   11.3144 H   0  0  0  0  0  0  0  0  0  0  0  0
    3.8601   -0.8705   11.2387 H   0  0  0  0  0  0  0  0  0  0  0  0
    6.6740   -0.5585   10.8024 H   0  0  0  0  0  0  0  0  0  0  0  0
   10.1308   -0.8592   15.9641 H   0  0  0  0  0  0  0  0  0  0  0  0
    8.4445   -3.0001   15.2979 H   0  0  0  0  0  0  0  0  0  0  0  0
    5.7979   -2.6247   14.4355 H   0  0  0  0  0  0  0  0  0  0  0  0
   -4.5165   -2.5848    3.7482 H   0  0  0  0  0  0  0  0  0  0  0  0
   -7.5676   -3.5643    6.1811 H   0  0  0  0  0  0  0  0  0  0  0  0
   -5.9143   -2.4570    7.7766 H   0  0  0  0  0  0  0  0  0  0  0  0
  1  2  1  0
  2  3  1  0
  3  4  1  0
  4  5  1  0
  4  6  1  0
  6  7  1  0
  7  8  1  0
  8  9  2  0
  8 10  1  0
 10 11  1  0
 11 12  2  0
 12 13  1  0
 13 14  2  0
 14 15  1  0
 15 16  2  0
 16 17  1  0
 17 18  1  0
  2 19  1  0
 19 20  2  0
 19 21  1  0
 21 22  1  0
 22 23  2  0
 23 24  1  0
 24 25  1  0
 18 10  2  0
 25 21  2  0
 17 13  1  0
  1 26  1  0
  1 27  1  0
  1 28  1  0
  3 29  1  0
  3 30  1  0
  4 31  1  0
  5 32  1  0
  6 33  1  0
  6 34  1  0
  7 35  1  0
 11 36  1  0
 15 37  1  0
 16 38  1  0
 18 39  1  0
 22 40  1  0
 24 41  1  0
 25 42  1  0
M  END
>  <Energy>  (308) 
566.64820615953158

>  <compound_id>  (308) 
25667

>  <target_id>  (308) 
1

>  <reference_id>  (308) 
99

>  <inspiration_ids>  (308) 
[106, 99]

>  <energy_score>  (308) 
497.3476205685921

>  <distance_score>  (308) 
5.757450081612149

>  <path>  (308) 
/opt/xchem-fragalysis-2/maxwin/BulkDock/SCRATCH/511017/C25667-P99/C25667-P99.minimised.mol

>  <scratch_subdir>  (308) 
/opt/xchem-fragalysis-2/maxwin/BulkDock/SCRATCH/511017/C25667-P99

>  <fragmenstein_runtime>  (308) 
11.13879132270813

>  <fragmenstein_outcome>  (308) 
too moved

>  <fragmenstein_mode>  (308) 
expansion

>  <fragmenstein_error>  (308) 


$$$$
C25675-P106
     RDKit          3D

 41 43  0  0  0  0  0  0  0  0999 V2000
   -2.5672   -1.1154    7.2037 C   0  0  0  0  0  0  0  0  0  0  0  0
   -3.1958   -1.7393    8.2962 C   0  0  0  0  0  0  0  0  0  0  0  0
   -3.2638   -0.4537    8.8014 N   0  0  0  0  0  0  0  0  0  0  0  0
   -1.5667   -0.8392    9.2829 C   0  0  0  0  0  0  0  0  0  0  0  0
    0.2534   -0.9066   10.4252 C   0  0  0  0  0  0  0  0  0  0  0  0
    2.0053   -1.1568   11.0118 N   0  0  0  0  0  0  0  0  0  0  0  0
    3.4250    0.0537   11.2452 C   0  0  0  0  0  0  0  0  0  0  0  0
    3.3490    1.2699   11.1129 O   0  0  0  0  0  0  0  0  0  0  0  0
    5.2541   -0.7487   11.7611 C   0  0  0  0  0  0  0  0  0  0  0  0
    6.7238   -0.6675   11.2431 C   0  0  0  0  0  0  0  0  0  0  0  0
    7.8099   -0.4435   11.9336 N   0  0  0  0  0  0  0  0  0  0  0  0
    7.8831   -0.7461   13.2047 C   0  0  0  0  0  0  0  0  0  0  0  0
    8.5891   -0.3623   14.2465 N   0  0  0  0  0  0  0  0  0  0  0  0
    8.3678   -1.3516   15.1497 C   0  0  0  0  0  0  0  0  0  0  0  0
    7.3885   -2.2075   14.6887 C   0  0  0  0  0  0  0  0  0  0  0  0
    7.0556   -1.7490   13.4529 N   0  0  0  0  0  0  0  0  0  0  0  0
    6.0264   -1.9009   12.5220 C   0  0  0  0  0  0  0  0  0  0  0  0
   -4.3539   -0.3042    9.5144 C   0  0  0  0  0  0  0  0  0  0  0  0
   -4.5368   -0.4663   10.6580 O   0  0  0  0  0  0  0  0  0  0  0  0
   -5.5297    0.0378    8.5933 C   0  0  0  0  0  0  0  0  0  0  0  0
   -5.8608    1.1383    7.7657 C   0  0  0  0  0  0  0  0  0  0  0  0
   -6.9623    0.9742    7.0275 N   0  0  0  0  0  0  0  0  0  0  0  0
   -7.4302   -0.2054    7.4382 N   0  0  0  0  0  0  0  0  0  0  0  0
   -6.6321   -0.7789    8.3809 C   0  0  0  0  0  0  0  0  0  0  0  0
   -2.2348   -0.1392    7.3787 H   0  0  0  0  0  0  0  0  0  0  0  0
   -3.2334   -0.8262    6.4041 H   0  0  0  0  0  0  0  0  0  0  0  0
   -1.6018   -1.6101    7.0912 H   0  0  0  0  0  0  0  0  0  0  0  0
   -2.7560   -2.5734    8.7764 H   0  0  0  0  0  0  0  0  0  0  0  0
   -4.1602   -2.0945    7.9145 H   0  0  0  0  0  0  0  0  0  0  0  0
   -1.4609    0.0412    8.7285 H   0  0  0  0  0  0  0  0  0  0  0  0
   -2.1125   -0.1866    9.9338 H   0  0  0  0  0  0  0  0  0  0  0  0
   -0.1093   -0.7899   11.4462 H   0  0  0  0  0  0  0  0  0  0  0  0
    0.6362   -1.7536    9.8848 H   0  0  0  0  0  0  0  0  0  0  0  0
    2.3556   -2.1078   11.0916 H   0  0  0  0  0  0  0  0  0  0  0  0
    6.8022   -0.5657   10.1786 H   0  0  0  0  0  0  0  0  0  0  0  0
    8.9044   -1.3278   16.0769 H   0  0  0  0  0  0  0  0  0  0  0  0
    6.8503   -3.0092   15.1239 H   0  0  0  0  0  0  0  0  0  0  0  0
    5.4728   -2.8259   12.7223 H   0  0  0  0  0  0  0  0  0  0  0  0
   -5.3823    2.0981    7.6829 H   0  0  0  0  0  0  0  0  0  0  0  0
   -8.3025   -0.5526    7.0490 H   0  0  0  0  0  0  0  0  0  0  0  0
   -6.9328   -1.7178    8.7910 H   0  0  0  0  0  0  0  0  0  0  0  0
  1  2  1  0
  2  3  1  0
  3  4  1  0
  4  5  1  0
  5  6  1  0
  6  7  1  0
  7  8  2  0
  7  9  1  0
  9 10  1  0
 10 11  2  0
 11 12  1  0
 12 13  2  0
 13 14  1  0
 14 15  2  0
 15 16  1  0
 16 17  1  0
  3 18  1  0
 18 19  2  0
 18 20  1  0
 20 21  1  0
 21 22  2  0
 22 23  1  0
 23 24  1  0
 17  9  2  0
 24 20  2  0
 16 12  1  0
  1 25  1  0
  1 26  1  0
  1 27  1  0
  2 28  1  0
  2 29  1  0
  4 30  1  0
  4 31  1  0
  5 32  1  0
  5 33  1  0
  6 34  1  0
 10 35  1  0
 14 36  1  0
 15 37  1  0
 17 38  1  0
 21 39  1  0
 23 40  1  0
 24 41  1  0
M  END
>  <Energy>  (309) 
823.61939809314538

>  <compound_id>  (309) 
25675

>  <target_id>  (309) 
1

>  <reference_id>  (309) 
106

>  <inspiration_ids>  (309) 
[106, 99]

>  <energy_score>  (309) 
774.575942040786

>  <distance_score>  (309) 
6.170202793097944

>  <path>  (309) 
/opt/xchem-fragalysis-2/maxwin/BulkDock/SCRATCH/511017/C25675-P106/C25675-P106.minimised.mol

>  <scratch_subdir>  (309) 
/opt/xchem-fragalysis-2/maxwin/BulkDock/SCRATCH/511017/C25675-P106

>  <fragmenstein_runtime>  (309) 
9.945569276809692

>  <fragmenstein_outcome>  (309) 
too moved

>  <fragmenstein_mode>  (309) 
expansion

>  <fragmenstein_error>  (309) 


$$$$
C25675-P99
     RDKit          3D

 41 43  0  0  0  0  0  0  0  0999 V2000
   -4.1844   -2.7344    6.7571 C   0  0  0  0  0  0  0  0  0  0  0  0
   -2.9930   -2.2115    7.5571 C   0  0  0  0  0  0  0  0  0  0  0  0
   -2.8628   -0.8020    7.7885 N   0  0  0  0  0  0  0  0  0  0  0  0
   -1.4041   -1.3479    8.7030 C   0  0  0  0  0  0  0  0  0  0  0  0
    0.5163   -1.1701    9.6760 C   0  0  0  0  0  0  0  0  0  0  0  0
    2.1244   -1.3820   10.9265 N   0  0  0  0  0  0  0  0  0  0  0  0
    3.7830   -0.3108   11.1196 C   0  0  0  0  0  0  0  0  0  0  0  0
    3.8939    0.7284   10.4800 O   0  0  0  0  0  0  0  0  0  0  0  0
    5.5789   -0.7223   12.1214 C   0  0  0  0  0  0  0  0  0  0  0  0
    6.9668   -0.3593   11.5899 C   0  0  0  0  0  0  0  0  0  0  0  0
    7.9501    0.2814   12.2249 N   0  0  0  0  0  0  0  0  0  0  0  0
    8.1985   -0.0321   13.5161 C   0  0  0  0  0  0  0  0  0  0  0  0
    9.0367    0.3861   14.4324 N   0  0  0  0  0  0  0  0  0  0  0  0
    9.1112   -0.6726   15.2895 C   0  0  0  0  0  0  0  0  0  0  0  0
    8.2022   -1.6491   14.9405 C   0  0  0  0  0  0  0  0  0  0  0  0
    7.5185   -1.1572   13.8726 N   0  0  0  0  0  0  0  0  0  0  0  0
    6.2821   -1.4579   13.2176 C   0  0  0  0  0  0  0  0  0  0  0  0
   -4.1022   -0.2678    8.2462 C   0  0  0  0  0  0  0  0  0  0  0  0
   -4.5219   -0.1287    9.3521 O   0  0  0  0  0  0  0  0  0  0  0  0
   -5.0886    0.0853    7.1918 C   0  0  0  0  0  0  0  0  0  0  0  0
   -5.0861    0.0078    5.7783 C   0  0  0  0  0  0  0  0  0  0  0  0
   -6.2798    0.2381    5.2225 N   0  0  0  0  0  0  0  0  0  0  0  0
   -7.0788    0.4432    6.2797 N   0  0  0  0  0  0  0  0  0  0  0  0
   -6.4143    0.4016    7.4656 C   0  0  0  0  0  0  0  0  0  0  0  0
   -5.1509   -2.5391    7.2260 H   0  0  0  0  0  0  0  0  0  0  0  0
   -4.1896   -2.3860    5.7234 H   0  0  0  0  0  0  0  0  0  0  0  0
   -4.0717   -3.8114    6.7169 H   0  0  0  0  0  0  0  0  0  0  0  0
   -2.1793   -2.3244    6.8997 H   0  0  0  0  0  0  0  0  0  0  0  0
   -3.0579   -2.8041    8.4576 H   0  0  0  0  0  0  0  0  0  0  0  0
   -1.4710   -0.3403    8.3840 H   0  0  0  0  0  0  0  0  0  0  0  0
   -2.0772   -1.5096    9.4498 H   0  0  0  0  0  0  0  0  0  0  0  0
    0.9189   -1.7920    8.9008 H   0  0  0  0  0  0  0  0  0  0  0  0
    1.1268   -0.3849    9.1500 H   0  0  0  0  0  0  0  0  0  0  0  0
    2.2248   -2.2072   11.4316 H   0  0  0  0  0  0  0  0  0  0  0  0
    6.9895   -0.3917   10.4975 H   0  0  0  0  0  0  0  0  0  0  0  0
    9.8470   -0.6858   16.0789 H   0  0  0  0  0  0  0  0  0  0  0  0
    8.0140   -2.6332   15.2988 H   0  0  0  0  0  0  0  0  0  0  0  0
    5.8368   -2.1992   13.8758 H   0  0  0  0  0  0  0  0  0  0  0  0
   -4.2613   -0.2416    5.1236 H   0  0  0  0  0  0  0  0  0  0  0  0
   -8.0678    0.6068    6.1182 H   0  0  0  0  0  0  0  0  0  0  0  0
   -6.9335    0.5298    8.4060 H   0  0  0  0  0  0  0  0  0  0  0  0
  1  2  1  0
  2  3  1  0
  3  4  1  0
  4  5  1  0
  5  6  1  0
  6  7  1  0
  7  8  2  0
  7  9  1  0
  9 10  1  0
 10 11  2  0
 11 12  1  0
 12 13  2  0
 13 14  1  0
 14 15  2  0
 15 16  1  0
 16 17  1  0
  3 18  1  0
 18 19  2  0
 18 20  1  0
 20 21  1  0
 21 22  2  0
 22 23  1  0
 23 24  1  0
 17  9  2  0
 24 20  2  0
 16 12  1  0
  1 25  1  0
  1 26  1  0
  1 27  1  0
  2 28  1  0
  2 29  1  0
  4 30  1  0
  4 31  1  0
  5 32  1  0
  5 33  1  0
  6 34  1  0
 10 35  1  0
 14 36  1  0
 15 37  1  0
 17 38  1  0
 21 39  1  0
 23 40  1  0
 24 41  1  0
M  END
>  <Energy>  (310) 
790.46627464105529

>  <compound_id>  (310) 
25675

>  <target_id>  (310) 
1

>  <reference_id>  (310) 
99

>  <inspiration_ids>  (310) 
[106, 99]

>  <energy_score>  (310) 
741.4228185887023

>  <distance_score>  (310) 
5.862206454534938

>  <path>  (310) 
/opt/xchem-fragalysis-2/maxwin/BulkDock/SCRATCH/511017/C25675-P99/C25675-P99.minimised.mol

>  <scratch_subdir>  (310) 
/opt/xchem-fragalysis-2/maxwin/BulkDock/SCRATCH/511017/C25675-P99

>  <fragmenstein_runtime>  (310) 
10.718103647232056

>  <fragmenstein_outcome>  (310) 
too moved

>  <fragmenstein_mode>  (310) 
expansion

>  <fragmenstein_error>  (310) 


$$$$
C39816-P76
     RDKit          3D

 42 43  0  0  0  0  0  0  0  0999 V2000
    7.1463   -1.9308   14.7411 C   0  0  0  0  0  0  0  0  0  0  0  0
    7.9715   -1.1607   15.7816 C   0  0  0  0  0  0  0  0  0  0  0  0
    7.4637   -0.2422   17.4399 C   0  0  0  0  0  0  0  0  0  0  0  0
    8.1356   -0.3890   19.2333 N   0  0  0  0  0  0  0  0  0  0  0  0
    8.2043    1.0524   18.9481 C   0  0  0  0  0  0  0  0  0  0  0  0
    7.1823   -1.2836   20.4114 C   0  0  0  0  0  0  0  0  0  0  0  0
    6.3472   -0.7397   21.0938 O   0  0  0  0  0  0  0  0  0  0  0  0
    7.4004   -3.2947   21.0331 C   0  0  0  0  0  0  0  0  0  0  0  0
    7.8040   -4.9984   20.5810 C   0  0  0  0  0  0  0  0  0  0  0  0
    7.6722   -6.2288   21.7835 C   0  0  0  0  0  0  0  0  0  0  0  0
    7.5740   -7.5948   21.5491 C   0  0  0  0  0  0  0  0  0  0  0  0
    7.1684   -8.3480   22.7019 C   0  0  0  0  0  0  0  0  0  0  0  0
    7.0502   -7.5753   23.8288 C   0  0  0  0  0  0  0  0  0  0  0  0
    7.4767   -5.9699   23.5149 S   0  0  0  0  0  0  0  0  0  0  0  0
    9.2074   -0.7853   14.9311 N   0  0  0  0  0  0  0  0  0  0  0  0
   10.3233   -1.8855   15.0339 C   0  0  0  0  0  0  0  0  0  0  0  0
   11.6944   -1.5941   14.5125 C   0  0  0  0  0  0  0  0  0  0  0  0
   12.1745   -0.6144   13.6229 C   0  0  0  0  0  0  0  0  0  0  0  0
   13.5298   -0.8018   13.6005 C   0  0  0  0  0  0  0  0  0  0  0  0
   13.8573   -1.8266   14.4195 O   0  0  0  0  0  0  0  0  0  0  0  0
   12.7104   -2.3322   14.9949 N   0  0  0  0  0  0  0  0  0  0  0  0
    7.6542   -2.8771   14.6145 H   0  0  0  0  0  0  0  0  0  0  0  0
    7.1721   -1.5307   13.7208 H   0  0  0  0  0  0  0  0  0  0  0  0
    6.1053   -2.1712   14.8968 H   0  0  0  0  0  0  0  0  0  0  0  0
    8.4970   -1.9010   16.2588 H   0  0  0  0  0  0  0  0  0  0  0  0
    7.6425    0.7562   17.0133 H   0  0  0  0  0  0  0  0  0  0  0  0
    6.4378   -0.6200   17.5730 H   0  0  0  0  0  0  0  0  0  0  0  0
    8.6663    1.4161   19.8811 H   0  0  0  0  0  0  0  0  0  0  0  0
    7.2701    1.5839   19.0337 H   0  0  0  0  0  0  0  0  0  0  0  0
    8.9039    1.4567   18.2190 H   0  0  0  0  0  0  0  0  0  0  0  0
    7.4631   -3.5570   22.1204 H   0  0  0  0  0  0  0  0  0  0  0  0
    6.2257   -3.0637   20.8895 H   0  0  0  0  0  0  0  0  0  0  0  0
    8.7651   -5.1920   20.1258 H   0  0  0  0  0  0  0  0  0  0  0  0
    7.0552   -5.2650   19.8412 H   0  0  0  0  0  0  0  0  0  0  0  0
    7.6791   -8.0388   20.5689 H   0  0  0  0  0  0  0  0  0  0  0  0
    6.9723   -9.4129   22.6935 H   0  0  0  0  0  0  0  0  0  0  0  0
    6.7672   -7.8869   24.8244 H   0  0  0  0  0  0  0  0  0  0  0  0
    9.0122   -0.7925   13.9153 H   0  0  0  0  0  0  0  0  0  0  0  0
   10.5041   -2.0932   16.0845 H   0  0  0  0  0  0  0  0  0  0  0  0
    9.9653   -2.8241   14.6161 H   0  0  0  0  0  0  0  0  0  0  0  0
   11.6075    0.1549   13.1219 H   0  0  0  0  0  0  0  0  0  0  0  0
   14.3548   -0.3123   13.1064 H   0  0  0  0  0  0  0  0  0  0  0  0
  1  2  1  0
  2  3  1  0
  3  4  1  0
  4  5  1  0
  4  6  1  0
  6  7  2  0
  6  8  1  0
  8  9  1  0
  9 10  1  0
 10 11  2  0
 11 12  1  0
 12 13  2  0
 13 14  1  0
  2 15  1  0
 15 16  1  0
 16 17  1  0
 17 18  1  0
 18 19  2  0
 19 20  1  0
 20 21  1  0
 14 10  1  0
 21 17  2  0
  1 22  1  0
  1 23  1  0
  1 24  1  0
  2 25  1  0
  3 26  1  0
  3 27  1  0
  5 28  1  0
  5 29  1  0
  5 30  1  0
  8 31  1  0
  8 32  1  0
  9 33  1  0
  9 34  1  0
 11 35  1  0
 12 36  1  0
 13 37  1  0
 15 38  1  0
 16 39  1  0
 16 40  1  0
 18 41  1  0
 19 42  1  0
M  END
>  <Energy>  (311) 
484.89372323470133

>  <compound_id>  (311) 
39816

>  <target_id>  (311) 
1

>  <reference_id>  (311) 
76

>  <inspiration_ids>  (311) 
[76, 59]

>  <energy_score>  (311) 
406.26456038167515

>  <distance_score>  (311) 
9.36279703123655

>  <path>  (311) 
/opt/xchem-fragalysis-2/maxwin/BulkDock/SCRATCH/511017/C39816-P76/C39816-P76.minimised.mol

>  <scratch_subdir>  (311) 
/opt/xchem-fragalysis-2/maxwin/BulkDock/SCRATCH/511017/C39816-P76

>  <fragmenstein_runtime>  (311) 
12.269383192062378

>  <fragmenstein_outcome>  (311) 
too moved

>  <fragmenstein_mode>  (311) 
expansion

>  <fragmenstein_error>  (311) 


$$$$
C39816-P59
     RDKit          3D

 42 43  0  0  0  0  0  0  0  0999 V2000
    9.5407    2.1688   15.0085 C   0  0  0  0  0  0  0  0  0  0  0  0
    9.7051    1.2689   16.2432 C   0  0  0  0  0  0  0  0  0  0  0  0
    8.4087    1.1496   17.2281 C   0  0  0  0  0  0  0  0  0  0  0  0
    7.6688    2.0877   18.3434 N   0  0  0  0  0  0  0  0  0  0  0  0
    8.4334    3.1175   17.6732 C   0  0  0  0  0  0  0  0  0  0  0  0
    7.8112    1.5137   19.6541 C   0  0  0  0  0  0  0  0  0  0  0  0
    8.6632    1.6852   20.4887 O   0  0  0  0  0  0  0  0  0  0  0  0
    6.3055    0.4032   20.1432 C   0  0  0  0  0  0  0  0  0  0  0  0
    4.6423    0.3422   21.4426 C   0  0  0  0  0  0  0  0  0  0  0  0
    4.9022    0.2693   23.4295 C   0  0  0  0  0  0  0  0  0  0  0  0
    4.6947   -0.8235   24.3272 C   0  0  0  0  0  0  0  0  0  0  0  0
    4.5810   -0.4838   25.7112 C   0  0  0  0  0  0  0  0  0  0  0  0
    4.5014    0.8686   25.9096 C   0  0  0  0  0  0  0  0  0  0  0  0
    4.5001    1.7534   24.4501 S   0  0  0  0  0  0  0  0  0  0  0  0
   10.0576   -0.1196   15.7883 N   0  0  0  0  0  0  0  0  0  0  0  0
   11.3576   -0.2157   15.0700 C   0  0  0  0  0  0  0  0  0  0  0  0
   12.0090   -1.5323   15.3714 C   0  0  0  0  0  0  0  0  0  0  0  0
   11.5059   -2.8379   15.1704 C   0  0  0  0  0  0  0  0  0  0  0  0
   12.4760   -3.6648   15.6702 C   0  0  0  0  0  0  0  0  0  0  0  0
   13.5147   -2.9175   16.1137 O   0  0  0  0  0  0  0  0  0  0  0  0
   13.2334   -1.5762   15.9189 N   0  0  0  0  0  0  0  0  0  0  0  0
    8.6209    1.9356   14.4692 H   0  0  0  0  0  0  0  0  0  0  0  0
    9.5318    3.2296   15.2709 H   0  0  0  0  0  0  0  0  0  0  0  0
   10.3717    2.0627   14.3036 H   0  0  0  0  0  0  0  0  0  0  0  0
   10.5307    1.6461   16.8144 H   0  0  0  0  0  0  0  0  0  0  0  0
    7.6460    0.8352   16.5140 H   0  0  0  0  0  0  0  0  0  0  0  0
    8.5923    0.2545   17.8187 H   0  0  0  0  0  0  0  0  0  0  0  0
    8.0482    3.3461   16.6753 H   0  0  0  0  0  0  0  0  0  0  0  0
    8.1585    4.0252   18.2334 H   0  0  0  0  0  0  0  0  0  0  0  0
    9.5070    3.0975   17.8434 H   0  0  0  0  0  0  0  0  0  0  0  0
    6.8070   -0.6145   20.1726 H   0  0  0  0  0  0  0  0  0  0  0  0
    6.1075    0.4477   19.0520 H   0  0  0  0  0  0  0  0  0  0  0  0
    3.7417    0.8638   21.1434 H   0  0  0  0  0  0  0  0  0  0  0  0
    4.5840    1.2548   21.9921 H   0  0  0  0  0  0  0  0  0  0  0  0
    4.6629   -1.8377   23.9688 H   0  0  0  0  0  0  0  0  0  0  0  0
    4.5130   -1.2086   26.5124 H   0  0  0  0  0  0  0  0  0  0  0  0
    4.3795    1.3900   26.8484 H   0  0  0  0  0  0  0  0  0  0  0  0
    9.3455   -0.4437   15.1271 H   0  0  0  0  0  0  0  0  0  0  0  0
   11.1930   -0.1289   13.9900 H   0  0  0  0  0  0  0  0  0  0  0  0
   12.0317    0.5982   15.3598 H   0  0  0  0  0  0  0  0  0  0  0  0
   10.5549   -3.1265   14.7590 H   0  0  0  0  0  0  0  0  0  0  0  0
   12.5815   -4.7346   15.7888 H   0  0  0  0  0  0  0  0  0  0  0  0
  1  2  1  0
  2  3  1  0
  3  4  1  0
  4  5  1  0
  4  6  1  0
  6  7  2  0
  6  8  1  0
  8  9  1  0
  9 10  1  0
 10 11  2  0
 11 12  1  0
 12 13  2  0
 13 14  1  0
  2 15  1  0
 15 16  1  0
 16 17  1  0
 17 18  1  0
 18 19  2  0
 19 20  1  0
 20 21  1  0
 14 10  1  0
 21 17  2  0
  1 22  1  0
  1 23  1  0
  1 24  1  0
  2 25  1  0
  3 26  1  0
  3 27  1  0
  5 28  1  0
  5 29  1  0
  5 30  1  0
  8 31  1  0
  8 32  1  0
  9 33  1  0
  9 34  1  0
 11 35  1  0
 12 36  1  0
 13 37  1  0
 15 38  1  0
 16 39  1  0
 16 40  1  0
 18 41  1  0
 19 42  1  0
M  END
>  <Energy>  (312) 
395.93186803164679

>  <compound_id>  (312) 
39816

>  <target_id>  (312) 
1

>  <reference_id>  (312) 
59

>  <inspiration_ids>  (312) 
[76, 59]

>  <energy_score>  (312) 
317.3027051786249

>  <distance_score>  (312) 
6.188654036783654

>  <path>  (312) 
/opt/xchem-fragalysis-2/maxwin/BulkDock/SCRATCH/511017/C39816-P59/C39816-P59.minimised.mol

>  <scratch_subdir>  (312) 
/opt/xchem-fragalysis-2/maxwin/BulkDock/SCRATCH/511017/C39816-P59

>  <fragmenstein_runtime>  (312) 
11.377710342407227

>  <fragmenstein_outcome>  (312) 
too moved

>  <fragmenstein_mode>  (312) 
expansion

>  <fragmenstein_error>  (312) 


$$$$
C39817-P76
     RDKit          3D

 42 43  0  0  0  0  0  0  0  0999 V2000
   10.6650    4.7372   19.7860 C   0  0  0  0  0  0  0  0  0  0  0  0
   10.3020    3.5333   18.9215 C   0  0  0  0  0  0  0  0  0  0  0  0
    8.7133    3.3570   18.6945 C   0  0  0  0  0  0  0  0  0  0  0  0
    7.6786    2.7157   19.7056 N   0  0  0  0  0  0  0  0  0  0  0  0
    7.4524    4.1633   20.0496 C   0  0  0  0  0  0  0  0  0  0  0  0
    7.8840    1.9496   20.9005 C   0  0  0  0  0  0  0  0  0  0  0  0
    8.9063    1.6770   21.4876 O   0  0  0  0  0  0  0  0  0  0  0  0
    6.2866    1.1172   21.6044 C   0  0  0  0  0  0  0  0  0  0  0  0
    4.4425    0.7527   22.2998 C   0  0  0  0  0  0  0  0  0  0  0  0
    4.2600    0.1939   24.2878 C   0  0  0  0  0  0  0  0  0  0  0  0
    4.3700    0.7550   25.6271 C   0  0  0  0  0  0  0  0  0  0  0  0
    3.7102    0.0825   26.6974 C   0  0  0  0  0  0  0  0  0  0  0  0
    3.2492   -1.1307   26.3145 C   0  0  0  0  0  0  0  0  0  0  0  0
    2.3218   -2.1470   27.3618 Cl  0  0  0  0  0  0  0  0  0  0  0  0
    3.8107   -1.5935   24.7786 S   0  0  0  0  0  0  0  0  0  0  0  0
   10.9995    3.6711   17.5939 N   0  0  0  0  0  0  0  0  0  0  0  0
   12.4738    3.8480   17.6726 C   0  0  0  0  0  0  0  0  0  0  0  0
   13.1930    3.3435   16.4472 C   0  0  0  0  0  0  0  0  0  0  0  0
   12.8432    3.4588   15.0808 C   0  0  0  0  0  0  0  0  0  0  0  0
   13.7583    2.6738   14.4286 C   0  0  0  0  0  0  0  0  0  0  0  0
   14.6390    2.1649   15.3223 O   0  0  0  0  0  0  0  0  0  0  0  0
   14.3198    2.6213   16.5880 N   0  0  0  0  0  0  0  0  0  0  0  0
   10.3057    4.5985   20.8104 H   0  0  0  0  0  0  0  0  0  0  0  0
   10.2381    5.6625   19.3845 H   0  0  0  0  0  0  0  0  0  0  0  0
   11.7448    4.8811   19.8894 H   0  0  0  0  0  0  0  0  0  0  0  0
   10.6740    2.6451   19.4285 H   0  0  0  0  0  0  0  0  0  0  0  0
    8.7043    2.5210   17.9736 H   0  0  0  0  0  0  0  0  0  0  0  0
    8.3136    4.1591   18.0488 H   0  0  0  0  0  0  0  0  0  0  0  0
    6.7239    4.1814   20.8726 H   0  0  0  0  0  0  0  0  0  0  0  0
    6.9525    4.7396   19.2581 H   0  0  0  0  0  0  0  0  0  0  0  0
    8.3013    4.6724   20.5051 H   0  0  0  0  0  0  0  0  0  0  0  0
    6.2947    0.2190   20.8942 H   0  0  0  0  0  0  0  0  0  0  0  0
    6.1244    2.2277   21.5067 H   0  0  0  0  0  0  0  0  0  0  0  0
    3.5223    1.2732   21.9419 H   0  0  0  0  0  0  0  0  0  0  0  0
    4.3964   -0.2328   21.8253 H   0  0  0  0  0  0  0  0  0  0  0  0
    4.8504    1.6813   25.9145 H   0  0  0  0  0  0  0  0  0  0  0  0
    3.6001    0.4835   27.6967 H   0  0  0  0  0  0  0  0  0  0  0  0
   10.7909    2.8689   17.0024 H   0  0  0  0  0  0  0  0  0  0  0  0
   12.8707    3.3260   18.5522 H   0  0  0  0  0  0  0  0  0  0  0  0
   12.6991    4.9148   17.7828 H   0  0  0  0  0  0  0  0  0  0  0  0
   11.9952    3.9683   14.6502 H   0  0  0  0  0  0  0  0  0  0  0  0
   13.9091    2.3808   13.4010 H   0  0  0  0  0  0  0  0  0  0  0  0
  1  2  1  0
  2  3  1  0
  3  4  1  0
  4  5  1  0
  4  6  1  0
  6  7  2  0
  6  8  1  0
  8  9  1  0
  9 10  1  0
 10 11  2  0
 11 12  1  0
 12 13  2  0
 13 14  1  0
 13 15  1  0
  2 16  1  0
 16 17  1  0
 17 18  1  0
 18 19  1  0
 19 20  2  0
 20 21  1  0
 21 22  1  0
 15 10  1  0
 22 18  2  0
  1 23  1  0
  1 24  1  0
  1 25  1  0
  2 26  1  0
  3 27  1  0
  3 28  1  0
  5 29  1  0
  5 30  1  0
  5 31  1  0
  8 32  1  0
  8 33  1  0
  9 34  1  0
  9 35  1  0
 11 36  1  0
 12 37  1  0
 16 38  1  0
 17 39  1  0
 17 40  1  0
 19 41  1  0
 20 42  1  0
M  END
>  <Energy>  (313) 
376.21591493484937

>  <compound_id>  (313) 
39817

>  <target_id>  (313) 
1

>  <reference_id>  (313) 
76

>  <inspiration_ids>  (313) 
[76, 59]

>  <energy_score>  (313) 
295.6912503136843

>  <distance_score>  (313) 
6.58398422672702

>  <path>  (313) 
/opt/xchem-fragalysis-2/maxwin/BulkDock/SCRATCH/511017/C39817-P76/C39817-P76.minimised.mol

>  <scratch_subdir>  (313) 
/opt/xchem-fragalysis-2/maxwin/BulkDock/SCRATCH/511017/C39817-P76

>  <fragmenstein_runtime>  (313) 
6.713309288024902

>  <fragmenstein_outcome>  (313) 
too moved

>  <fragmenstein_mode>  (313) 
expansion

>  <fragmenstein_error>  (313) 


$$$$
C39817-P59
     RDKit          3D

 42 43  0  0  0  0  0  0  0  0999 V2000
    9.4796    4.4388   16.1520 C   0  0  0  0  0  0  0  0  0  0  0  0
    8.7599    3.1022   15.9672 C   0  0  0  0  0  0  0  0  0  0  0  0
    8.6174    2.1485   17.1913 C   0  0  0  0  0  0  0  0  0  0  0  0
    7.8232    2.2167   18.5126 N   0  0  0  0  0  0  0  0  0  0  0  0
    9.0468    2.9171   18.9621 C   0  0  0  0  0  0  0  0  0  0  0  0
    7.4614    1.1509   19.4639 C   0  0  0  0  0  0  0  0  0  0  0  0
    7.7765   -0.0168   19.4818 O   0  0  0  0  0  0  0  0  0  0  0  0
    6.4194    1.8136   20.9948 C   0  0  0  0  0  0  0  0  0  0  0  0
    4.9243    1.3940   22.5423 C   0  0  0  0  0  0  0  0  0  0  0  0
    4.2228    2.3269   23.6698 C   0  0  0  0  0  0  0  0  0  0  0  0
    3.3251    3.3805   23.5954 C   0  0  0  0  0  0  0  0  0  0  0  0
    2.5827    3.5764   24.8188 C   0  0  0  0  0  0  0  0  0  0  0  0
    2.9445    2.6773   25.7879 C   0  0  0  0  0  0  0  0  0  0  0  0
    2.1871    2.4238   27.3213 Cl  0  0  0  0  0  0  0  0  0  0  0  0
    4.2627    1.7259   25.3276 S   0  0  0  0  0  0  0  0  0  0  0  0
    9.3641    2.3416   14.8155 N   0  0  0  0  0  0  0  0  0  0  0  0
   10.8035    2.0222   14.8864 C   0  0  0  0  0  0  0  0  0  0  0  0
   11.0889    0.5504   14.9668 C   0  0  0  0  0  0  0  0  0  0  0  0
   10.2067   -0.5532   15.0424 C   0  0  0  0  0  0  0  0  0  0  0  0
   11.0272   -1.6503   15.0798 C   0  0  0  0  0  0  0  0  0  0  0  0
   12.3188   -1.2481   15.0685 O   0  0  0  0  0  0  0  0  0  0  0  0
   12.3670    0.1324   14.9948 N   0  0  0  0  0  0  0  0  0  0  0  0
    9.4918    5.0018   15.2113 H   0  0  0  0  0  0  0  0  0  0  0  0
   10.5147    4.3403   16.4869 H   0  0  0  0  0  0  0  0  0  0  0  0
    8.9464    5.0571   16.8825 H   0  0  0  0  0  0  0  0  0  0  0  0
    7.7341    3.3414   15.6571 H   0  0  0  0  0  0  0  0  0  0  0  0
    9.5664    1.6017   17.3592 H   0  0  0  0  0  0  0  0  0  0  0  0
    8.0771    1.3031   16.7337 H   0  0  0  0  0  0  0  0  0  0  0  0
    8.6111    3.8284   19.3988 H   0  0  0  0  0  0  0  0  0  0  0  0
    9.5357    2.4430   19.8094 H   0  0  0  0  0  0  0  0  0  0  0  0
    9.7507    3.4231   18.3082 H   0  0  0  0  0  0  0  0  0  0  0  0
    7.4903    1.8719   21.1546 H   0  0  0  0  0  0  0  0  0  0  0  0
    6.3395    2.9403   20.6533 H   0  0  0  0  0  0  0  0  0  0  0  0
    5.1375    0.5267   23.2316 H   0  0  0  0  0  0  0  0  0  0  0  0
    4.1966    1.0648   21.7939 H   0  0  0  0  0  0  0  0  0  0  0  0
    3.1099    3.9171   22.6789 H   0  0  0  0  0  0  0  0  0  0  0  0
    1.7805    4.2942   24.9343 H   0  0  0  0  0  0  0  0  0  0  0  0
    9.1966    2.8738   13.9619 H   0  0  0  0  0  0  0  0  0  0  0  0
   11.2973    2.5303   15.7143 H   0  0  0  0  0  0  0  0  0  0  0  0
   11.2749    2.4055   13.9722 H   0  0  0  0  0  0  0  0  0  0  0  0
    9.1269   -0.5426   15.0158 H   0  0  0  0  0  0  0  0  0  0  0  0
   10.8687   -2.7182   15.0993 H   0  0  0  0  0  0  0  0  0  0  0  0
  1  2  1  0
  2  3  1  0
  3  4  1  0
  4  5  1  0
  4  6  1  0
  6  7  2  0
  6  8  1  0
  8  9  1  0
  9 10  1  0
 10 11  2  0
 11 12  1  0
 12 13  2  0
 13 14  1  0
 13 15  1  0
  2 16  1  0
 16 17  1  0
 17 18  1  0
 18 19  1  0
 19 20  2  0
 20 21  1  0
 21 22  1  0
 15 10  1  0
 22 18  2  0
  1 23  1  0
  1 24  1  0
  1 25  1  0
  2 26  1  0
  3 27  1  0
  3 28  1  0
  5 29  1  0
  5 30  1  0
  5 31  1  0
  8 32  1  0
  8 33  1  0
  9 34  1  0
  9 35  1  0
 11 36  1  0
 12 37  1  0
 16 38  1  0
 17 39  1  0
 17 40  1  0
 19 41  1  0
 20 42  1  0
M  END
>  <Energy>  (314) 
375.9473023492157

>  <compound_id>  (314) 
39817

>  <target_id>  (314) 
1

>  <reference_id>  (314) 
59

>  <inspiration_ids>  (314) 
[76, 59]

>  <energy_score>  (314) 
295.4226377280486

>  <distance_score>  (314) 
6.424969028906293

>  <path>  (314) 
/opt/xchem-fragalysis-2/maxwin/BulkDock/SCRATCH/511017/C39817-P59/C39817-P59.minimised.mol

>  <scratch_subdir>  (314) 
/opt/xchem-fragalysis-2/maxwin/BulkDock/SCRATCH/511017/C39817-P59

>  <fragmenstein_runtime>  (314) 
8.574180364608765

>  <fragmenstein_outcome>  (314) 
too moved

>  <fragmenstein_mode>  (314) 
expansion

>  <fragmenstein_error>  (314) 


$$$$
C39818-P76
     RDKit          3D

 45 46  0  0  0  0  0  0  0  0999 V2000
   13.8594    1.0336   22.4354 C   0  0  0  0  0  0  0  0  0  0  0  0
   12.5981    1.0169   23.2265 C   0  0  0  0  0  0  0  0  0  0  0  0
   11.4921    1.8277   23.1039 C   0  0  0  0  0  0  0  0  0  0  0  0
   10.4980    1.5384   24.0892 C   0  0  0  0  0  0  0  0  0  0  0  0
   10.8208    0.4519   24.8798 C   0  0  0  0  0  0  0  0  0  0  0  0
   10.0351   -0.3141   25.9311 C   0  0  0  0  0  0  0  0  0  0  0  0
    8.7389    0.3159   26.5221 C   0  0  0  0  0  0  0  0  0  0  0  0
    7.9847   -0.7202   27.4115 C   0  0  0  0  0  0  0  0  0  0  0  0
    8.4971   -1.6760   27.8075 O   0  0  0  0  0  0  0  0  0  0  0  0
    6.4202   -0.1682   27.4976 N   0  0  0  0  0  0  0  0  0  0  0  0
    5.5029   -0.7802   28.2200 C   0  0  0  0  0  0  0  0  0  0  0  0
    4.6936   -0.8903   28.1271 C   0  0  0  0  0  0  0  0  0  0  0  0
    3.6461   -0.2840   29.4822 C   0  0  0  0  0  0  0  0  0  0  0  0
    3.3711    1.2132   29.3261 C   0  0  0  0  0  0  0  0  0  0  0  0
    2.3754   -1.0310   29.4404 N   0  0  0  0  0  0  0  0  0  0  0  0
    1.4533   -0.8055   30.5616 C   0  0  0  0  0  0  0  0  0  0  0  0
    0.0813   -1.2341   30.1491 C   0  0  0  0  0  0  0  0  0  0  0  0
   -0.4790   -1.2412   28.8478 C   0  0  0  0  0  0  0  0  0  0  0  0
   -1.7530   -1.6939   29.0335 C   0  0  0  0  0  0  0  0  0  0  0  0
   -1.9637   -1.9346   30.3493 O   0  0  0  0  0  0  0  0  0  0  0  0
   -0.8102   -1.6491   31.0608 N   0  0  0  0  0  0  0  0  0  0  0  0
   12.4110   -0.1067   24.5009 S   0  0  0  0  0  0  0  0  0  0  0  0
   14.1095    0.0363   22.0602 H   0  0  0  0  0  0  0  0  0  0  0  0
   13.7689    1.7010   21.5720 H   0  0  0  0  0  0  0  0  0  0  0  0
   14.6920    1.3920   23.0497 H   0  0  0  0  0  0  0  0  0  0  0  0
   11.4087    2.6186   22.3694 H   0  0  0  0  0  0  0  0  0  0  0  0
    9.5655    2.0815   24.1769 H   0  0  0  0  0  0  0  0  0  0  0  0
    9.7753   -1.2918   25.5065 H   0  0  0  0  0  0  0  0  0  0  0  0
   10.7074   -0.5243   26.7750 H   0  0  0  0  0  0  0  0  0  0  0  0
    8.9864    1.1858   27.1392 H   0  0  0  0  0  0  0  0  0  0  0  0
    8.0791    0.6379   25.7181 H   0  0  0  0  0  0  0  0  0  0  0  0
    6.0105   -1.3482   29.2560 H   0  0  0  0  0  0  0  0  0  0  0  0
    6.1264   -1.8399   27.8725 H   0  0  0  0  0  0  0  0  0  0  0  0
    5.8736    0.0902   29.0307 H   0  0  0  0  0  0  0  0  0  0  0  0
    4.3435   -2.0675   27.8777 H   0  0  0  0  0  0  0  0  0  0  0  0
    4.0024   -0.4366   27.2383 H   0  0  0  0  0  0  0  0  0  0  0  0
    4.1777   -0.4973   30.4192 H   0  0  0  0  0  0  0  0  0  0  0  0
    4.3077    1.7653   29.1973 H   0  0  0  0  0  0  0  0  0  0  0  0
    2.7501    1.4145   28.4462 H   0  0  0  0  0  0  0  0  0  0  0  0
    2.8742    1.6362   30.2037 H   0  0  0  0  0  0  0  0  0  0  0  0
    2.5470   -2.0339   29.3601 H   0  0  0  0  0  0  0  0  0  0  0  0
    1.3915    0.2497   30.8430 H   0  0  0  0  0  0  0  0  0  0  0  0
    1.7936   -1.3686   31.4379 H   0  0  0  0  0  0  0  0  0  0  0  0
   -0.0075   -0.9644   27.9161 H   0  0  0  0  0  0  0  0  0  0  0  0
   -2.5833   -1.8902   28.3745 H   0  0  0  0  0  0  0  0  0  0  0  0
  1  2  1  0
  2  3  2  0
  3  4  1  0
  4  5  2  0
  5  6  1  0
  6  7  1  0
  7  8  1  0
  8  9  2  0
  8 10  1  0
 10 11  1  0
 10 12  1  0
 12 13  1  0
 13 14  1  0
 13 15  1  0
 15 16  1  0
 16 17  1  0
 17 18  1  0
 18 19  2  0
 19 20  1  0
 20 21  1  0
  5 22  1  0
 22  2  1  0
 21 17  2  0
  1 23  1  0
  1 24  1  0
  1 25  1  0
  3 26  1  0
  4 27  1  0
  6 28  1  0
  6 29  1  0
  7 30  1  0
  7 31  1  0
 11 32  1  0
 11 33  1  0
 11 34  1  0
 12 35  1  0
 12 36  1  0
 13 37  1  0
 14 38  1  0
 14 39  1  0
 14 40  1  0
 15 41  1  0
 16 42  1  0
 16 43  1  0
 18 44  1  0
 19 45  1  0
M  END
>  <Energy>  (315) 
776.47587108092284

>  <compound_id>  (315) 
39818

>  <target_id>  (315) 
1

>  <reference_id>  (315) 
76

>  <inspiration_ids>  (315) 
[76, 59]

>  <energy_score>  (315) 
690.5435118907294

>  <distance_score>  (315) 
9.87570908509074

>  <path>  (315) 
/opt/xchem-fragalysis-2/maxwin/BulkDock/SCRATCH/511017/C39818-P76/C39818-P76.minimised.mol

>  <scratch_subdir>  (315) 
/opt/xchem-fragalysis-2/maxwin/BulkDock/SCRATCH/511017/C39818-P76

>  <fragmenstein_runtime>  (315) 
12.23794150352478

>  <fragmenstein_outcome>  (315) 
too moved

>  <fragmenstein_mode>  (315) 
expansion

>  <fragmenstein_error>  (315) 


$$$$
C39818-P59
     RDKit          3D

 45 46  0  0  0  0  0  0  0  0999 V2000
    7.4957    1.5964   15.0579 C   0  0  0  0  0  0  0  0  0  0  0  0
    6.4191    0.6540   15.4704 C   0  0  0  0  0  0  0  0  0  0  0  0
    5.5086   -0.0058   14.6793 C   0  0  0  0  0  0  0  0  0  0  0  0
    4.6355   -0.8347   15.4430 C   0  0  0  0  0  0  0  0  0  0  0  0
    4.9532   -0.8726   16.8003 C   0  0  0  0  0  0  0  0  0  0  0  0
    4.3423   -2.0443   17.8213 C   0  0  0  0  0  0  0  0  0  0  0  0
    5.1809   -2.8085   19.5094 C   0  0  0  0  0  0  0  0  0  0  0  0
    5.6856   -1.9088   20.9248 C   0  0  0  0  0  0  0  0  0  0  0  0
    6.5861   -1.1476   20.6207 O   0  0  0  0  0  0  0  0  0  0  0  0
    4.7231   -2.1342   22.5769 N   0  0  0  0  0  0  0  0  0  0  0  0
    4.8261   -1.6570   23.7958 C   0  0  0  0  0  0  0  0  0  0  0  0
    4.9211   -0.9018   24.1821 C   0  0  0  0  0  0  0  0  0  0  0  0
    4.8619   -1.1674   26.0553 C   0  0  0  0  0  0  0  0  0  0  0  0
    5.6470   -0.0059   26.6723 C   0  0  0  0  0  0  0  0  0  0  0  0
    3.4897   -1.1112   26.6428 N   0  0  0  0  0  0  0  0  0  0  0  0
    3.3352   -1.5365   28.0450 C   0  0  0  0  0  0  0  0  0  0  0  0
    1.9602   -1.1667   28.5336 C   0  0  0  0  0  0  0  0  0  0  0  0
    0.7700   -1.9315   28.4977 C   0  0  0  0  0  0  0  0  0  0  0  0
   -0.1878   -1.0987   29.0112 C   0  0  0  0  0  0  0  0  0  0  0  0
    0.3833    0.0727   29.3801 O   0  0  0  0  0  0  0  0  0  0  0  0
    1.7369    0.0358   29.0886 N   0  0  0  0  0  0  0  0  0  0  0  0
    6.1719    0.3062   17.1172 S   0  0  0  0  0  0  0  0  0  0  0  0
    7.5498    1.6756   13.9670 H   0  0  0  0  0  0  0  0  0  0  0  0
    7.3088    2.5981   15.4586 H   0  0  0  0  0  0  0  0  0  0  0  0
    8.4720    1.2529   15.4160 H   0  0  0  0  0  0  0  0  0  0  0  0
    5.4709    0.0906   13.6008 H   0  0  0  0  0  0  0  0  0  0  0  0
    3.8788   -1.4737   15.0039 H   0  0  0  0  0  0  0  0  0  0  0  0
    3.3283   -1.6320   17.9415 H   0  0  0  0  0  0  0  0  0  0  0  0
    4.0989   -2.9094   17.1660 H   0  0  0  0  0  0  0  0  0  0  0  0
    5.3394   -3.8927   19.5457 H   0  0  0  0  0  0  0  0  0  0  0  0
    5.7998   -2.3351   18.8136 H   0  0  0  0  0  0  0  0  0  0  0  0
    3.6212   -1.9220   23.6557 H   0  0  0  0  0  0  0  0  0  0  0  0
    4.4775   -2.6034   24.5774 H   0  0  0  0  0  0  0  0  0  0  0  0
    5.7193   -2.4656   23.9393 H   0  0  0  0  0  0  0  0  0  0  0  0
    3.8992   -0.2494   24.3674 H   0  0  0  0  0  0  0  0  0  0  0  0
    5.3788    0.1520   23.9358 H   0  0  0  0  0  0  0  0  0  0  0  0
    5.3726   -2.1136   26.2825 H   0  0  0  0  0  0  0  0  0  0  0  0
    5.7817   -0.1169   27.7518 H   0  0  0  0  0  0  0  0  0  0  0  0
    6.6482    0.0370   26.2301 H   0  0  0  0  0  0  0  0  0  0  0  0
    5.1628    0.9574   26.4777 H   0  0  0  0  0  0  0  0  0  0  0  0
    3.1245   -0.1574   26.5653 H   0  0  0  0  0  0  0  0  0  0  0  0
    3.4725   -2.6213   28.1134 H   0  0  0  0  0  0  0  0  0  0  0  0
    4.0765   -1.0638   28.6969 H   0  0  0  0  0  0  0  0  0  0  0  0
    0.6243   -2.9278   28.1152 H   0  0  0  0  0  0  0  0  0  0  0  0
   -1.2530   -1.1763   29.1699 H   0  0  0  0  0  0  0  0  0  0  0  0
  1  2  1  0
  2  3  2  0
  3  4  1  0
  4  5  2  0
  5  6  1  0
  6  7  1  0
  7  8  1  0
  8  9  2  0
  8 10  1  0
 10 11  1  0
 10 12  1  0
 12 13  1  0
 13 14  1  0
 13 15  1  0
 15 16  1  0
 16 17  1  0
 17 18  1  0
 18 19  2  0
 19 20  1  0
 20 21  1  0
  5 22  1  0
 22  2  1  0
 21 17  2  0
  1 23  1  0
  1 24  1  0
  1 25  1  0
  3 26  1  0
  4 27  1  0
  6 28  1  0
  6 29  1  0
  7 30  1  0
  7 31  1  0
 11 32  1  0
 11 33  1  0
 11 34  1  0
 12 35  1  0
 12 36  1  0
 13 37  1  0
 14 38  1  0
 14 39  1  0
 14 40  1  0
 15 41  1  0
 16 42  1  0
 16 43  1  0
 18 44  1  0
 19 45  1  0
M  END
>  <Energy>  (316) 
1051.6347597452259

>  <compound_id>  (316) 
39818

>  <target_id>  (316) 
1

>  <reference_id>  (316) 
59

>  <inspiration_ids>  (316) 
[76, 59]

>  <energy_score>  (316) 
965.7024005550415

>  <distance_score>  (316) 
9.585924952540827

>  <path>  (316) 
/opt/xchem-fragalysis-2/maxwin/BulkDock/SCRATCH/511017/C39818-P59/C39818-P59.minimised.mol

>  <scratch_subdir>  (316) 
/opt/xchem-fragalysis-2/maxwin/BulkDock/SCRATCH/511017/C39818-P59

>  <fragmenstein_runtime>  (316) 
13.517622232437134

>  <fragmenstein_outcome>  (316) 
too moved

>  <fragmenstein_mode>  (316) 
expansion

>  <fragmenstein_error>  (316) 


$$$$
C39836-P76
     RDKit          3D

 39 40  0  0  0  0  0  0  0  0999 V2000
    8.0643    3.9001   18.8750 C   0  0  0  0  0  0  0  0  0  0  0  0
    9.0707    3.1081   19.7061 C   0  0  0  0  0  0  0  0  0  0  0  0
    8.4492    1.7571   20.2699 C   0  0  0  0  0  0  0  0  0  0  0  0
    7.1445    1.7971   21.0039 N   0  0  0  0  0  0  0  0  0  0  0  0
    6.0087    0.4943   21.4054 C   0  0  0  0  0  0  0  0  0  0  0  0
    6.1643   -0.6990   21.2081 O   0  0  0  0  0  0  0  0  0  0  0  0
    4.3309    0.8503   22.3681 C   0  0  0  0  0  0  0  0  0  0  0  0
    2.8180    2.0271   22.4622 C   0  0  0  0  0  0  0  0  0  0  0  0
    4.2572    0.1047   24.2729 C   0  0  0  0  0  0  0  0  0  0  0  0
    4.2709   -1.2705   24.6520 C   0  0  0  0  0  0  0  0  0  0  0  0
    3.9295   -1.5224   26.0156 C   0  0  0  0  0  0  0  0  0  0  0  0
    3.6139   -0.3770   26.6998 C   0  0  0  0  0  0  0  0  0  0  0  0
    3.6735    1.0134   25.7177 S   0  0  0  0  0  0  0  0  0  0  0  0
   10.2599    2.8840   18.8421 N   0  0  0  0  0  0  0  0  0  0  0  0
   11.2568    3.9683   18.8989 C   0  0  0  0  0  0  0  0  0  0  0  0
   12.3791    3.7153   17.9370 C   0  0  0  0  0  0  0  0  0  0  0  0
   12.3542    3.7737   16.5198 C   0  0  0  0  0  0  0  0  0  0  0  0
   13.6067    3.3681   16.1401 C   0  0  0  0  0  0  0  0  0  0  0  0
   14.3546    3.1190   17.2427 O   0  0  0  0  0  0  0  0  0  0  0  0
   13.5992    3.3673   18.3786 N   0  0  0  0  0  0  0  0  0  0  0  0
    7.2469    4.2570   19.5079 H   0  0  0  0  0  0  0  0  0  0  0  0
    8.5120    4.7930   18.4255 H   0  0  0  0  0  0  0  0  0  0  0  0
    7.6411    3.2937   18.0677 H   0  0  0  0  0  0  0  0  0  0  0  0
    9.3534    3.7076   20.5808 H   0  0  0  0  0  0  0  0  0  0  0  0
    8.2934    1.0488   19.4478 H   0  0  0  0  0  0  0  0  0  0  0  0
    9.1823    1.3104   20.9500 H   0  0  0  0  0  0  0  0  0  0  0  0
    6.7149    2.6974   21.2065 H   0  0  0  0  0  0  0  0  0  0  0  0
    3.9867    0.1521   21.6616 H   0  0  0  0  0  0  0  0  0  0  0  0
    2.1912    1.8660   21.5769 H   0  0  0  0  0  0  0  0  0  0  0  0
    2.3270    1.8886   23.4298 H   0  0  0  0  0  0  0  0  0  0  0  0
    2.9722    3.1207   22.5348 H   0  0  0  0  0  0  0  0  0  0  0  0
    4.4878   -2.0475   23.9295 H   0  0  0  0  0  0  0  0  0  0  0  0
    3.8886   -2.5106   26.4541 H   0  0  0  0  0  0  0  0  0  0  0  0
    3.3085   -0.2943   27.7326 H   0  0  0  0  0  0  0  0  0  0  0  0
    9.9555    2.7641   17.8756 H   0  0  0  0  0  0  0  0  0  0  0  0
   11.6535    4.0449   19.9182 H   0  0  0  0  0  0  0  0  0  0  0  0
   10.7978    4.9313   18.6484 H   0  0  0  0  0  0  0  0  0  0  0  0
   11.5272    4.0164   15.8705 H   0  0  0  0  0  0  0  0  0  0  0  0
   14.0952    3.2015   15.1919 H   0  0  0  0  0  0  0  0  0  0  0  0
  1  2  1  0
  2  3  1  0
  3  4  1  0
  4  5  1  0
  5  6  2  0
  5  7  1  0
  7  8  1  0
  7  9  1  0
  9 10  2  0
 10 11  1  0
 11 12  2  0
 12 13  1  0
  2 14  1  0
 14 15  1  0
 15 16  1  0
 16 17  1  0
 17 18  2  0
 18 19  1  0
 19 20  1  0
 13  9  1  0
 20 16  2  0
  1 21  1  0
  1 22  1  0
  1 23  1  0
  2 24  1  0
  3 25  1  0
  3 26  1  0
  4 27  1  0
  7 28  1  0
  8 29  1  0
  8 30  1  0
  8 31  1  0
 10 32  1  0
 11 33  1  0
 12 34  1  0
 14 35  1  0
 15 36  1  0
 15 37  1  0
 17 38  1  0
 18 39  1  0
M  END
>  <Energy>  (317) 
279.75265857931896

>  <compound_id>  (317) 
39836

>  <target_id>  (317) 
1

>  <reference_id>  (317) 
76

>  <inspiration_ids>  (317) 
[76, 59]

>  <energy_score>  (317) 
196.41431168751666

>  <distance_score>  (317) 
7.4908476686905425

>  <path>  (317) 
/opt/xchem-fragalysis-2/maxwin/BulkDock/SCRATCH/511017/C39836-P76/C39836-P76.minimised.mol

>  <scratch_subdir>  (317) 
/opt/xchem-fragalysis-2/maxwin/BulkDock/SCRATCH/511017/C39836-P76

>  <fragmenstein_runtime>  (317) 
8.142254829406738

>  <fragmenstein_outcome>  (317) 
too moved

>  <fragmenstein_mode>  (317) 
expansion

>  <fragmenstein_error>  (317) 


$$$$
C39836-P59
     RDKit          3D

 39 40  0  0  0  0  0  0  0  0999 V2000
    8.5642    5.6421   17.9522 C   0  0  0  0  0  0  0  0  0  0  0  0
    8.1383    4.4108   18.7854 C   0  0  0  0  0  0  0  0  0  0  0  0
    6.7449    4.8661   19.5740 C   0  0  0  0  0  0  0  0  0  0  0  0
    6.0534    3.9137   20.5384 N   0  0  0  0  0  0  0  0  0  0  0  0
    6.4061    2.1954   20.9730 C   0  0  0  0  0  0  0  0  0  0  0  0
    7.2659    1.5872   20.4057 O   0  0  0  0  0  0  0  0  0  0  0  0
    4.9551    1.5338   22.5532 C   0  0  0  0  0  0  0  0  0  0  0  0
    3.6563    2.6902   23.0149 C   0  0  0  0  0  0  0  0  0  0  0  0
    5.1270    1.1793   24.2446 C   0  0  0  0  0  0  0  0  0  0  0  0
    5.2749    2.0919   25.3085 C   0  0  0  0  0  0  0  0  0  0  0  0
    5.0559    1.5551   26.6160 C   0  0  0  0  0  0  0  0  0  0  0  0
    4.7092    0.2331   26.5697 C   0  0  0  0  0  0  0  0  0  0  0  0
    4.6351   -0.3365   24.9730 S   0  0  0  0  0  0  0  0  0  0  0  0
    8.2306    3.1246   18.0202 N   0  0  0  0  0  0  0  0  0  0  0  0
    9.0932    3.1177   16.8182 C   0  0  0  0  0  0  0  0  0  0  0  0
    9.4788    1.7617   16.2699 C   0  0  0  0  0  0  0  0  0  0  0  0
    8.7747    0.5363   16.2471 C   0  0  0  0  0  0  0  0  0  0  0  0
    9.5478   -0.3083   15.4944 C   0  0  0  0  0  0  0  0  0  0  0  0
   10.6757    0.3353   15.1198 O   0  0  0  0  0  0  0  0  0  0  0  0
   10.6313    1.6362   15.5815 N   0  0  0  0  0  0  0  0  0  0  0  0
    7.9358    5.7534   17.0623 H   0  0  0  0  0  0  0  0  0  0  0  0
    8.4596    6.5592   18.5434 H   0  0  0  0  0  0  0  0  0  0  0  0
    9.6138    5.6022   17.6479 H   0  0  0  0  0  0  0  0  0  0  0  0
    8.9003    4.3182   19.5669 H   0  0  0  0  0  0  0  0  0  0  0  0
    6.0040    5.1696   18.8254 H   0  0  0  0  0  0  0  0  0  0  0  0
    6.9678    5.7632   20.1653 H   0  0  0  0  0  0  0  0  0  0  0  0
    5.3590    4.2733   21.1811 H   0  0  0  0  0  0  0  0  0  0  0  0
    4.4061    0.8598   21.8940 H   0  0  0  0  0  0  0  0  0  0  0  0
    3.1355    2.3802   23.9277 H   0  0  0  0  0  0  0  0  0  0  0  0
    4.0888    3.6874   23.1550 H   0  0  0  0  0  0  0  0  0  0  0  0
    2.8499    2.7320   22.2756 H   0  0  0  0  0  0  0  0  0  0  0  0
    5.4675    3.1472   25.1671 H   0  0  0  0  0  0  0  0  0  0  0  0
    5.1270    2.1260   27.5335 H   0  0  0  0  0  0  0  0  0  0  0  0
    4.4768   -0.4214   27.3979 H   0  0  0  0  0  0  0  0  0  0  0  0
    7.3150    2.7147   17.8275 H   0  0  0  0  0  0  0  0  0  0  0  0
   10.0211    3.6570   17.0191 H   0  0  0  0  0  0  0  0  0  0  0  0
    8.5742    3.6543   16.0141 H   0  0  0  0  0  0  0  0  0  0  0  0
    7.8130    0.3226   16.6777 H   0  0  0  0  0  0  0  0  0  0  0  0
    9.4487   -1.3219   15.1356 H   0  0  0  0  0  0  0  0  0  0  0  0
  1  2  1  0
  2  3  1  0
  3  4  1  0
  4  5  1  0
  5  6  2  0
  5  7  1  0
  7  8  1  0
  7  9  1  0
  9 10  2  0
 10 11  1  0
 11 12  2  0
 12 13  1  0
  2 14  1  0
 14 15  1  0
 15 16  1  0
 16 17  1  0
 17 18  2  0
 18 19  1  0
 19 20  1  0
 13  9  1  0
 20 16  2  0
  1 21  1  0
  1 22  1  0
  1 23  1  0
  2 24  1  0
  3 25  1  0
  3 26  1  0
  4 27  1  0
  7 28  1  0
  8 29  1  0
  8 30  1  0
  8 31  1  0
 10 32  1  0
 11 33  1  0
 12 34  1  0
 14 35  1  0
 15 36  1  0
 15 37  1  0
 17 38  1  0
 18 39  1  0
M  END
>  <Energy>  (318) 
323.08918961425758

>  <compound_id>  (318) 
39836

>  <target_id>  (318) 
1

>  <reference_id>  (318) 
59

>  <inspiration_ids>  (318) 
[76, 59]

>  <energy_score>  (318) 
239.7508427224478

>  <distance_score>  (318) 
7.740273615250019

>  <path>  (318) 
/opt/xchem-fragalysis-2/maxwin/BulkDock/SCRATCH/511017/C39836-P59/C39836-P59.minimised.mol

>  <scratch_subdir>  (318) 
/opt/xchem-fragalysis-2/maxwin/BulkDock/SCRATCH/511017/C39836-P59

>  <fragmenstein_runtime>  (318) 
7.027953147888184

>  <fragmenstein_outcome>  (318) 
too moved

>  <fragmenstein_mode>  (318) 
expansion

>  <fragmenstein_error>  (318) 


$$$$
C39839-P76
     RDKit          3D

 34 36  0  0  0  0  0  0  0  0999 V2000
    1.9648   -0.0061   30.4044 C   0  0  0  0  0  0  0  0  0  0  0  0
    2.6269   -1.1057   29.4675 C   0  0  0  0  0  0  0  0  0  0  0  0
    1.6734   -1.6364   28.3643 C   0  0  0  0  0  0  0  0  0  0  0  0
    0.3725   -1.4621   28.9083 N   0  0  0  0  0  0  0  0  0  0  0  0
   -0.7351   -0.4826   28.5350 C   0  0  0  0  0  0  0  0  0  0  0  0
   -0.7971    0.2919   27.6709 O   0  0  0  0  0  0  0  0  0  0  0  0
   -1.7493   -0.6076   29.5718 C   0  0  0  0  0  0  0  0  0  0  0  0
   -2.5756    0.4437   30.0041 C   0  0  0  0  0  0  0  0  0  0  0  0
   -2.9538    0.0742   31.2627 C   0  0  0  0  0  0  0  0  0  0  0  0
   -2.4506   -1.1431   31.5529 O   0  0  0  0  0  0  0  0  0  0  0  0
   -1.7008   -1.5899   30.4926 N   0  0  0  0  0  0  0  0  0  0  0  0
    3.9597   -0.8004   28.7973 N   0  0  0  0  0  0  0  0  0  0  0  0
    4.9411   -1.6895   28.2717 C   0  0  0  0  0  0  0  0  0  0  0  0
    5.9480   -0.9378   27.5506 C   0  0  0  0  0  0  0  0  0  0  0  0
    7.4021   -1.2569   26.6396 C   0  0  0  0  0  0  0  0  0  0  0  0
    8.2404   -0.2490   25.9435 C   0  0  0  0  0  0  0  0  0  0  0  0
    9.4265   -0.7067   25.3530 C   0  0  0  0  0  0  0  0  0  0  0  0
    9.6323   -2.3816   25.6006 S   0  0  0  0  0  0  0  0  0  0  0  0
    8.1514   -2.4359   26.5370 C   0  0  0  0  0  0  0  0  0  0  0  0
    5.5290    0.3833   27.7263 N   0  0  0  0  0  0  0  0  0  0  0  0
    4.3784    0.4476   28.4486 N   0  0  0  0  0  0  0  0  0  0  0  0
    1.5864    0.8317   29.8104 H   0  0  0  0  0  0  0  0  0  0  0  0
    1.1680   -0.4217   31.0273 H   0  0  0  0  0  0  0  0  0  0  0  0
    2.7321    0.3924   31.0773 H   0  0  0  0  0  0  0  0  0  0  0  0
    2.8879   -1.9433   30.1302 H   0  0  0  0  0  0  0  0  0  0  0  0
    1.8453   -2.6952   28.1514 H   0  0  0  0  0  0  0  0  0  0  0  0
    1.7518   -1.0539   27.4410 H   0  0  0  0  0  0  0  0  0  0  0  0
    0.0584   -2.0527   29.6776 H   0  0  0  0  0  0  0  0  0  0  0  0
   -2.7512    1.3836   29.5050 H   0  0  0  0  0  0  0  0  0  0  0  0
   -3.5400    0.5312   32.0450 H   0  0  0  0  0  0  0  0  0  0  0  0
    4.8347   -2.7511   28.4072 H   0  0  0  0  0  0  0  0  0  0  0  0
    7.9666    0.7986   25.9420 H   0  0  0  0  0  0  0  0  0  0  0  0
   10.1732   -0.1245   24.8294 H   0  0  0  0  0  0  0  0  0  0  0  0
    7.9322   -3.3567   27.0515 H   0  0  0  0  0  0  0  0  0  0  0  0
  1  2  1  0
  2  3  1  0
  3  4  1  0
  4  5  1  0
  5  6  2  0
  5  7  1  0
  7  8  1  0
  8  9  2  0
  9 10  1  0
 10 11  1  0
  2 12  1  0
 12 13  1  0
 13 14  2  0
 14 15  1  0
 15 16  1  0
 16 17  2  0
 17 18  1  0
 18 19  1  0
 14 20  1  0
 20 21  2  0
 11  7  2  0
 21 12  1  0
 19 15  2  0
  1 22  1  0
  1 23  1  0
  1 24  1  0
  2 25  1  0
  3 26  1  0
  3 27  1  0
  4 28  1  0
  8 29  1  0
  9 30  1  0
 13 31  1  0
 16 32  1  0
 17 33  1  0
 19 34  1  0
M  END
>  <Energy>  (319) 
89.111258969497356

>  <compound_id>  (319) 
39839

>  <target_id>  (319) 
1

>  <reference_id>  (319) 
76

>  <inspiration_ids>  (319) 
[76, 59]

>  <energy_score>  (319) 
25.60101692089097

>  <distance_score>  (319) 
8.759180834708026

>  <path>  (319) 
/opt/xchem-fragalysis-2/maxwin/BulkDock/SCRATCH/511017/C39839-P76/C39839-P76.minimised.mol

>  <scratch_subdir>  (319) 
/opt/xchem-fragalysis-2/maxwin/BulkDock/SCRATCH/511017/C39839-P76

>  <fragmenstein_runtime>  (319) 
7.330306768417358

>  <fragmenstein_outcome>  (319) 
too moved

>  <fragmenstein_mode>  (319) 
expansion

>  <fragmenstein_error>  (319) 


$$$$
C39839-P59
     RDKit          3D

 34 36  0  0  0  0  0  0  0  0999 V2000
    4.0465    0.6960   27.2640 C   0  0  0  0  0  0  0  0  0  0  0  0
    3.7485   -0.5074   26.3441 C   0  0  0  0  0  0  0  0  0  0  0  0
    3.8477   -1.8143   27.1548 C   0  0  0  0  0  0  0  0  0  0  0  0
    2.6471   -1.9633   27.9672 N   0  0  0  0  0  0  0  0  0  0  0  0
    2.4036   -1.6673   29.3505 C   0  0  0  0  0  0  0  0  0  0  0  0
    3.1459   -1.2973   30.2100 O   0  0  0  0  0  0  0  0  0  0  0  0
    0.9469   -1.7694   29.6702 C   0  0  0  0  0  0  0  0  0  0  0  0
   -0.1795   -1.6596   28.8015 C   0  0  0  0  0  0  0  0  0  0  0  0
   -1.2676   -1.7858   29.6194 C   0  0  0  0  0  0  0  0  0  0  0  0
   -0.8554   -1.9428   30.8954 O   0  0  0  0  0  0  0  0  0  0  0  0
    0.5243   -1.9293   30.9390 N   0  0  0  0  0  0  0  0  0  0  0  0
    4.4425   -0.4987   25.0362 N   0  0  0  0  0  0  0  0  0  0  0  0
    4.5909   -1.5074   24.0361 C   0  0  0  0  0  0  0  0  0  0  0  0
    4.9013   -0.8661   22.7693 C   0  0  0  0  0  0  0  0  0  0  0  0
    5.5024   -1.3644   20.9929 C   0  0  0  0  0  0  0  0  0  0  0  0
    6.4346   -0.6713   19.9782 C   0  0  0  0  0  0  0  0  0  0  0  0
    7.6623   -1.0947   20.3676 C   0  0  0  0  0  0  0  0  0  0  0  0
    7.3871   -3.1527   21.2752 S   0  0  0  0  0  0  0  0  0  0  0  0
    5.6210   -2.7268   20.7532 C   0  0  0  0  0  0  0  0  0  0  0  0
    5.0500    0.5552   23.2477 N   0  0  0  0  0  0  0  0  0  0  0  0
    4.8456    0.6855   24.5530 N   0  0  0  0  0  0  0  0  0  0  0  0
    3.4266    0.6843   28.1648 H   0  0  0  0  0  0  0  0  0  0  0  0
    3.8472    1.6449   26.7539 H   0  0  0  0  0  0  0  0  0  0  0  0
    5.0985    0.6973   27.5695 H   0  0  0  0  0  0  0  0  0  0  0  0
    2.7059   -0.3505   26.0646 H   0  0  0  0  0  0  0  0  0  0  0  0
    4.7214   -1.8052   27.8149 H   0  0  0  0  0  0  0  0  0  0  0  0
    3.9045   -2.7055   26.5260 H   0  0  0  0  0  0  0  0  0  0  0  0
    1.7675   -2.1715   27.5151 H   0  0  0  0  0  0  0  0  0  0  0  0
   -0.2171   -1.4856   27.7368 H   0  0  0  0  0  0  0  0  0  0  0  0
   -2.3334   -1.7768   29.4577 H   0  0  0  0  0  0  0  0  0  0  0  0
    4.5551   -2.5093   24.3997 H   0  0  0  0  0  0  0  0  0  0  0  0
    6.3345    0.3217   19.5361 H   0  0  0  0  0  0  0  0  0  0  0  0
    8.6278   -0.7656   20.0846 H   0  0  0  0  0  0  0  0  0  0  0  0
    5.3543   -3.3322   19.9040 H   0  0  0  0  0  0  0  0  0  0  0  0
  1  2  1  0
  2  3  1  0
  3  4  1  0
  4  5  1  0
  5  6  2  0
  5  7  1  0
  7  8  1  0
  8  9  2  0
  9 10  1  0
 10 11  1  0
  2 12  1  0
 12 13  1  0
 13 14  2  0
 14 15  1  0
 15 16  1  0
 16 17  2  0
 17 18  1  0
 18 19  1  0
 14 20  1  0
 20 21  2  0
 11  7  2  0
 21 12  1  0
 19 15  2  0
  1 22  1  0
  1 23  1  0
  1 24  1  0
  2 25  1  0
  3 26  1  0
  3 27  1  0
  4 28  1  0
  8 29  1  0
  9 30  1  0
 13 31  1  0
 16 32  1  0
 17 33  1  0
 19 34  1  0
M  END
>  <Energy>  (320) 
222.16301803987997

>  <compound_id>  (320) 
39839

>  <target_id>  (320) 
1

>  <reference_id>  (320) 
59

>  <inspiration_ids>  (320) 
[76, 59]

>  <energy_score>  (320) 
157.5968773666074

>  <distance_score>  (320) 
8.500904354876402

>  <path>  (320) 
/opt/xchem-fragalysis-2/maxwin/BulkDock/SCRATCH/511017/C39839-P59/C39839-P59.minimised.mol

>  <scratch_subdir>  (320) 
/opt/xchem-fragalysis-2/maxwin/BulkDock/SCRATCH/511017/C39839-P59

>  <fragmenstein_runtime>  (320) 
9.514364242553711

>  <fragmenstein_outcome>  (320) 
too moved

>  <fragmenstein_mode>  (320) 
expansion

>  <fragmenstein_error>  (320) 


$$$$
C39840-P76
     RDKit          3D

 34 36  0  0  0  0  0  0  0  0999 V2000
    1.8886   -0.0876   30.6394 C   0  0  0  0  0  0  0  0  0  0  0  0
    2.4774   -1.0794   29.5485 C   0  0  0  0  0  0  0  0  0  0  0  0
    1.4983   -1.3339   28.3737 C   0  0  0  0  0  0  0  0  0  0  0  0
    0.1999   -1.1526   28.9299 N   0  0  0  0  0  0  0  0  0  0  0  0
   -0.6958   -2.1227   29.6974 C   0  0  0  0  0  0  0  0  0  0  0  0
   -0.5549   -3.2524   29.9352 O   0  0  0  0  0  0  0  0  0  0  0  0
   -1.8052   -1.3285   30.2163 C   0  0  0  0  0  0  0  0  0  0  0  0
   -2.5900   -1.6274   31.3462 C   0  0  0  0  0  0  0  0  0  0  0  0
   -3.1443   -0.4239   31.6862 C   0  0  0  0  0  0  0  0  0  0  0  0
   -2.7739    0.5250   30.7996 O   0  0  0  0  0  0  0  0  0  0  0  0
   -1.9467   -0.0363   29.8614 N   0  0  0  0  0  0  0  0  0  0  0  0
    3.8334   -0.7553   28.9330 N   0  0  0  0  0  0  0  0  0  0  0  0
    4.8067   -1.6090   28.3277 C   0  0  0  0  0  0  0  0  0  0  0  0
    5.8261   -0.8026   27.6941 C   0  0  0  0  0  0  0  0  0  0  0  0
    7.4488   -1.1031   26.6599 C   0  0  0  0  0  0  0  0  0  0  0  0
    8.1463   -2.2789   26.3310 C   0  0  0  0  0  0  0  0  0  0  0  0
    9.3571   -2.1548   25.5035 C   0  0  0  0  0  0  0  0  0  0  0  0
    9.6514   -0.8412   25.2511 C   0  0  0  0  0  0  0  0  0  0  0  0
    8.5182    0.1922   26.0700 S   0  0  0  0  0  0  0  0  0  0  0  0
    5.4109    0.5041   27.9753 N   0  0  0  0  0  0  0  0  0  0  0  0
    4.2543    0.5151   28.6843 N   0  0  0  0  0  0  0  0  0  0  0  0
    1.0762   -0.5409   31.2129 H   0  0  0  0  0  0  0  0  0  0  0  0
    2.6831    0.1710   31.3481 H   0  0  0  0  0  0  0  0  0  0  0  0
    1.5487    0.8439   30.1752 H   0  0  0  0  0  0  0  0  0  0  0  0
    2.6705   -2.0300   30.0648 H   0  0  0  0  0  0  0  0  0  0  0  0
    1.6005   -2.3536   27.9903 H   0  0  0  0  0  0  0  0  0  0  0  0
    1.6246   -0.6140   27.5596 H   0  0  0  0  0  0  0  0  0  0  0  0
   -0.2722   -0.2519   28.8406 H   0  0  0  0  0  0  0  0  0  0  0  0
   -2.6221   -2.5415   31.9174 H   0  0  0  0  0  0  0  0  0  0  0  0
   -3.7764   -0.0887   32.4956 H   0  0  0  0  0  0  0  0  0  0  0  0
    4.6844   -2.6779   28.3606 H   0  0  0  0  0  0  0  0  0  0  0  0
    7.8390   -3.2171   26.7592 H   0  0  0  0  0  0  0  0  0  0  0  0
    9.9693   -2.9891   25.1868 H   0  0  0  0  0  0  0  0  0  0  0  0
   10.4835   -0.4194   24.7033 H   0  0  0  0  0  0  0  0  0  0  0  0
  1  2  1  0
  2  3  1  0
  3  4  1  0
  4  5  1  0
  5  6  2  0
  5  7  1  0
  7  8  1  0
  8  9  2  0
  9 10  1  0
 10 11  1  0
  2 12  1  0
 12 13  1  0
 13 14  2  0
 14 15  1  0
 15 16  2  0
 16 17  1  0
 17 18  2  0
 18 19  1  0
 14 20  1  0
 20 21  2  0
 11  7  2  0
 21 12  1  0
 19 15  1  0
  1 22  1  0
  1 23  1  0
  1 24  1  0
  2 25  1  0
  3 26  1  0
  3 27  1  0
  4 28  1  0
  8 29  1  0
  9 30  1  0
 13 31  1  0
 16 32  1  0
 17 33  1  0
 18 34  1  0
M  END
>  <Energy>  (321) 
96.291331640069188

>  <compound_id>  (321) 
39840

>  <target_id>  (321) 
1

>  <reference_id>  (321) 
76

>  <inspiration_ids>  (321) 
[76, 59]

>  <energy_score>  (321) 
33.274288296135865

>  <distance_score>  (321) 
8.52753464021713

>  <path>  (321) 
/opt/xchem-fragalysis-2/maxwin/BulkDock/SCRATCH/511017/C39840-P76/C39840-P76.minimised.mol

>  <scratch_subdir>  (321) 
/opt/xchem-fragalysis-2/maxwin/BulkDock/SCRATCH/511017/C39840-P76

>  <fragmenstein_runtime>  (321) 
11.927441835403442

>  <fragmenstein_outcome>  (321) 
too moved

>  <fragmenstein_mode>  (321) 
expansion

>  <fragmenstein_error>  (321) 


$$$$
C39840-P59
     RDKit          3D

 34 36  0  0  0  0  0  0  0  0999 V2000
    0.3559   -1.9770   31.2403 C   0  0  0  0  0  0  0  0  0  0  0  0
    1.6549   -1.1073   31.0336 C   0  0  0  0  0  0  0  0  0  0  0  0
    1.3570    0.4099   31.2661 C   0  0  0  0  0  0  0  0  0  0  0  0
    0.2311    0.5970   30.4296 N   0  0  0  0  0  0  0  0  0  0  0  0
    0.0274    1.5191   29.2328 C   0  0  0  0  0  0  0  0  0  0  0  0
    0.7218    2.3339   28.7823 O   0  0  0  0  0  0  0  0  0  0  0  0
   -1.2593    1.0454   28.7112 C   0  0  0  0  0  0  0  0  0  0  0  0
   -1.4602    0.6740   27.3665 C   0  0  0  0  0  0  0  0  0  0  0  0
   -2.1473   -0.5063   27.4599 C   0  0  0  0  0  0  0  0  0  0  0  0
   -2.4832   -0.7413   28.7452 O   0  0  0  0  0  0  0  0  0  0  0  0
   -2.0452    0.2975   29.5262 N   0  0  0  0  0  0  0  0  0  0  0  0
    2.3945   -1.3011   29.7019 N   0  0  0  0  0  0  0  0  0  0  0  0
    3.6772   -1.8536   29.4117 C   0  0  0  0  0  0  0  0  0  0  0  0
    4.1139   -1.3589   28.1335 C   0  0  0  0  0  0  0  0  0  0  0  0
    5.6975   -1.4385   27.0673 C   0  0  0  0  0  0  0  0  0  0  0  0
    5.9831   -0.5239   26.0367 C   0  0  0  0  0  0  0  0  0  0  0  0
    7.4042   -0.4347   25.6993 C   0  0  0  0  0  0  0  0  0  0  0  0
    8.1033   -1.5127   26.1751 C   0  0  0  0  0  0  0  0  0  0  0  0
    7.0931   -2.4742   27.2111 S   0  0  0  0  0  0  0  0  0  0  0  0
    3.0506   -0.5917   27.6899 N   0  0  0  0  0  0  0  0  0  0  0  0
    2.0341   -0.6356   28.5705 N   0  0  0  0  0  0  0  0  0  0  0  0
   -0.2001   -1.6620   32.1284 H   0  0  0  0  0  0  0  0  0  0  0  0
    0.6561   -3.0213   31.3839 H   0  0  0  0  0  0  0  0  0  0  0  0
   -0.2907   -1.9678   30.3579 H   0  0  0  0  0  0  0  0  0  0  0  0
    2.4034   -1.4195   31.7733 H   0  0  0  0  0  0  0  0  0  0  0  0
    2.1816    1.0613   30.9652 H   0  0  0  0  0  0  0  0  0  0  0  0
    1.0641    0.6034   32.3011 H   0  0  0  0  0  0  0  0  0  0  0  0
   -0.6189    0.0612   30.5934 H   0  0  0  0  0  0  0  0  0  0  0  0
   -0.9294    1.0343   26.5007 H   0  0  0  0  0  0  0  0  0  0  0  0
   -2.4305   -1.2771   26.7587 H   0  0  0  0  0  0  0  0  0  0  0  0
    4.1934   -2.4416   30.1536 H   0  0  0  0  0  0  0  0  0  0  0  0
    5.2539    0.2147   25.7202 H   0  0  0  0  0  0  0  0  0  0  0  0
    7.8326    0.3579   25.0993 H   0  0  0  0  0  0  0  0  0  0  0  0
    9.1413   -1.7773   26.0400 H   0  0  0  0  0  0  0  0  0  0  0  0
  1  2  1  0
  2  3  1  0
  3  4  1  0
  4  5  1  0
  5  6  2  0
  5  7  1  0
  7  8  1  0
  8  9  2  0
  9 10  1  0
 10 11  1  0
  2 12  1  0
 12 13  1  0
 13 14  2  0
 14 15  1  0
 15 16  2  0
 16 17  1  0
 17 18  2  0
 18 19  1  0
 14 20  1  0
 20 21  2  0
 11  7  2  0
 21 12  1  0
 19 15  1  0
  1 22  1  0
  1 23  1  0
  1 24  1  0
  2 25  1  0
  3 26  1  0
  3 27  1  0
  4 28  1  0
  8 29  1  0
  9 30  1  0
 13 31  1  0
 16 32  1  0
 17 33  1  0
 18 34  1  0
M  END
>  <Energy>  (322) 
113.97084166335598

>  <compound_id>  (322) 
39840

>  <target_id>  (322) 
1

>  <reference_id>  (322) 
59

>  <inspiration_ids>  (322) 
[76, 59]

>  <energy_score>  (322) 
50.95379831941813

>  <distance_score>  (322) 
8.753980221772403

>  <path>  (322) 
/opt/xchem-fragalysis-2/maxwin/BulkDock/SCRATCH/511017/C39840-P59/C39840-P59.minimised.mol

>  <scratch_subdir>  (322) 
/opt/xchem-fragalysis-2/maxwin/BulkDock/SCRATCH/511017/C39840-P59

>  <fragmenstein_runtime>  (322) 
6.1909401416778564

>  <fragmenstein_outcome>  (322) 
too moved

>  <fragmenstein_mode>  (322) 
expansion

>  <fragmenstein_error>  (322) 


$$$$
C39842-P76
     RDKit          3D

 41 42  0  0  0  0  0  0  0  0999 V2000
    4.6993    0.1523   29.7386 O   0  0  0  0  0  0  0  0  0  0  0  0
    4.2828   -0.9624   29.8874 C   0  0  0  0  0  0  0  0  0  0  0  0
    4.8340   -2.1167   28.9928 C   0  0  0  0  0  0  0  0  0  0  0  0
    6.0797   -1.8384   28.2986 N   0  0  0  0  0  0  0  0  0  0  0  0
    7.4112   -2.3214   28.5245 C   0  0  0  0  0  0  0  0  0  0  0  0
    7.8506   -3.0168   29.3928 O   0  0  0  0  0  0  0  0  0  0  0  0
    8.3678   -1.8384   27.4785 C   0  0  0  0  0  0  0  0  0  0  0  0
    8.3527   -0.7215   26.6520 C   0  0  0  0  0  0  0  0  0  0  0  0
    9.5372   -0.5857   25.8605 C   0  0  0  0  0  0  0  0  0  0  0  0
   10.4068   -1.6325   26.0453 C   0  0  0  0  0  0  0  0  0  0  0  0
    9.8201   -2.7443   27.1998 S   0  0  0  0  0  0  0  0  0  0  0  0
    3.2765   -1.4840   30.7964 N   0  0  0  0  0  0  0  0  0  0  0  0
    2.5340   -0.8384   31.8698 C   0  0  0  0  0  0  0  0  0  0  0  0
    1.0014   -1.0604   31.8316 C   0  0  0  0  0  0  0  0  0  0  0  0
    0.6896   -2.4286   32.1318 O   0  0  0  0  0  0  0  0  0  0  0  0
    0.3027   -0.1490   32.8696 C   0  0  0  0  0  0  0  0  0  0  0  0
   -1.1115   -0.4516   33.1056 N   0  0  0  0  0  0  0  0  0  0  0  0
   -1.9434   -0.2142   31.9307 C   0  0  0  0  0  0  0  0  0  0  0  0
   -3.2667   -0.8322   32.1896 C   0  0  0  0  0  0  0  0  0  0  0  0
   -4.3166   -0.3375   32.9927 C   0  0  0  0  0  0  0  0  0  0  0  0
   -5.2840   -1.2995   32.9001 C   0  0  0  0  0  0  0  0  0  0  0  0
   -4.8533   -2.3002   32.0963 O   0  0  0  0  0  0  0  0  0  0  0  0
   -3.5657   -2.0305   31.6682 N   0  0  0  0  0  0  0  0  0  0  0  0
    4.0804   -2.3475   28.2335 H   0  0  0  0  0  0  0  0  0  0  0  0
    5.0017   -2.9997   29.6184 H   0  0  0  0  0  0  0  0  0  0  0  0
    6.0547   -1.3419   27.4180 H   0  0  0  0  0  0  0  0  0  0  0  0
    7.5585    0.0147   26.6623 H   0  0  0  0  0  0  0  0  0  0  0  0
    9.7446    0.2458   25.2003 H   0  0  0  0  0  0  0  0  0  0  0  0
   11.3635   -1.7983   25.5690 H   0  0  0  0  0  0  0  0  0  0  0  0
    3.1184   -2.4651   30.5889 H   0  0  0  0  0  0  0  0  0  0  0  0
    2.7660    0.2310   31.8262 H   0  0  0  0  0  0  0  0  0  0  0  0
    2.9451   -1.2449   32.8003 H   0  0  0  0  0  0  0  0  0  0  0  0
    0.6428   -0.8510   30.8179 H   0  0  0  0  0  0  0  0  0  0  0  0
   -0.2531   -2.5589   31.9268 H   0  0  0  0  0  0  0  0  0  0  0  0
    0.8068   -0.2708   33.8363 H   0  0  0  0  0  0  0  0  0  0  0  0
    0.4232    0.9041   32.5885 H   0  0  0  0  0  0  0  0  0  0  0  0
   -1.1966   -1.4261   33.4047 H   0  0  0  0  0  0  0  0  0  0  0  0
   -1.5222   -0.6499   31.0190 H   0  0  0  0  0  0  0  0  0  0  0  0
   -2.0588    0.8624   31.7617 H   0  0  0  0  0  0  0  0  0  0  0  0
   -4.3509    0.5767   33.5651 H   0  0  0  0  0  0  0  0  0  0  0  0
   -6.2757   -1.4190   33.3096 H   0  0  0  0  0  0  0  0  0  0  0  0
  1  2  2  0
  2  3  1  0
  3  4  1  0
  4  5  1  0
  5  6  2  0
  5  7  1  0
  7  8  2  0
  8  9  1  0
  9 10  2  0
 10 11  1  0
  2 12  1  0
 12 13  1  0
 13 14  1  0
 14 15  1  0
 14 16  1  0
 16 17  1  0
 17 18  1  0
 18 19  1  0
 19 20  1  0
 20 21  2  0
 21 22  1  0
 22 23  1  0
 11  7  1  0
 23 19  2  0
  3 24  1  0
  3 25  1  0
  4 26  1  0
  8 27  1  0
  9 28  1  0
 10 29  1  0
 12 30  1  0
 13 31  1  0
 13 32  1  0
 14 33  1  0
 15 34  1  0
 16 35  1  0
 16 36  1  0
 17 37  1  0
 18 38  1  0
 18 39  1  0
 20 40  1  0
 21 41  1  0
M  END
>  <Energy>  (323) 
65.129303596150336

>  <compound_id>  (323) 
39842

>  <target_id>  (323) 
1

>  <reference_id>  (323) 
76

>  <inspiration_ids>  (323) 
[76, 59]

>  <energy_score>  (323) 
-30.44761008374266

>  <distance_score>  (323) 
11.37888652808594

>  <path>  (323) 
/opt/xchem-fragalysis-2/maxwin/BulkDock/SCRATCH/511017/C39842-P76/C39842-P76.minimised.mol

>  <scratch_subdir>  (323) 
/opt/xchem-fragalysis-2/maxwin/BulkDock/SCRATCH/511017/C39842-P76

>  <fragmenstein_runtime>  (323) 
15.553604125976562

>  <fragmenstein_outcome>  (323) 
too moved

>  <fragmenstein_mode>  (323) 
expansion

>  <fragmenstein_error>  (323) 


$$$$
C39842-P59
     RDKit          3D

 41 42  0  0  0  0  0  0  0  0999 V2000
    5.1310    0.5263   23.5734 O   0  0  0  0  0  0  0  0  0  0  0  0
    5.0483    1.5483   22.9355 C   0  0  0  0  0  0  0  0  0  0  0  0
    6.2245    1.7420   21.0968 C   0  0  0  0  0  0  0  0  0  0  0  0
    7.4621    1.9925   19.8436 N   0  0  0  0  0  0  0  0  0  0  0  0
    8.1241    1.0787   18.9975 C   0  0  0  0  0  0  0  0  0  0  0  0
    8.0923   -0.1087   18.9625 O   0  0  0  0  0  0  0  0  0  0  0  0
    8.8971    1.7483   17.9179 C   0  0  0  0  0  0  0  0  0  0  0  0
    9.3589    1.1196   16.7612 C   0  0  0  0  0  0  0  0  0  0  0  0
    9.8615    2.0188   15.7836 C   0  0  0  0  0  0  0  0  0  0  0  0
    9.7150    3.3230   16.1898 C   0  0  0  0  0  0  0  0  0  0  0  0
    8.9530    3.4513   17.7208 S   0  0  0  0  0  0  0  0  0  0  0  0
    4.2558    2.8888   23.3168 N   0  0  0  0  0  0  0  0  0  0  0  0
    3.5128    3.2775   24.5763 C   0  0  0  0  0  0  0  0  0  0  0  0
    2.2929    2.6639   25.3797 C   0  0  0  0  0  0  0  0  0  0  0  0
    1.6115    3.7315   26.1109 O   0  0  0  0  0  0  0  0  0  0  0  0
    2.5994    1.6018   26.4992 C   0  0  0  0  0  0  0  0  0  0  0  0
    1.3706    1.3210   27.3104 N   0  0  0  0  0  0  0  0  0  0  0  0
    1.6555    0.3878   28.4162 C   0  0  0  0  0  0  0  0  0  0  0  0
    0.3879    0.0146   29.1191 C   0  0  0  0  0  0  0  0  0  0  0  0
   -0.6836   -0.7680   28.6234 C   0  0  0  0  0  0  0  0  0  0  0  0
   -1.5526   -0.8476   29.6762 C   0  0  0  0  0  0  0  0  0  0  0  0
   -1.0575   -0.1610   30.7321 O   0  0  0  0  0  0  0  0  0  0  0  0
    0.1686    0.3802   30.3919 N   0  0  0  0  0  0  0  0  0  0  0  0
    6.1682    2.9047   20.7836 H   0  0  0  0  0  0  0  0  0  0  0  0
    5.7168    0.7518   20.5408 H   0  0  0  0  0  0  0  0  0  0  0  0
    7.6633    2.9419   19.5276 H   0  0  0  0  0  0  0  0  0  0  0  0
    9.2836    0.0540   16.5930 H   0  0  0  0  0  0  0  0  0  0  0  0
   10.2675    1.7278   14.8225 H   0  0  0  0  0  0  0  0  0  0  0  0
    9.9902    4.2198   15.6530 H   0  0  0  0  0  0  0  0  0  0  0  0
    4.3079    3.5428   22.5361 H   0  0  0  0  0  0  0  0  0  0  0  0
    3.2234    4.3137   24.3533 H   0  0  0  0  0  0  0  0  0  0  0  0
    4.3237    3.3758   25.3103 H   0  0  0  0  0  0  0  0  0  0  0  0
    1.5534    2.3744   24.6436 H   0  0  0  0  0  0  0  0  0  0  0  0
    1.1302    3.2812   26.8398 H   0  0  0  0  0  0  0  0  0  0  0  0
    3.0137    0.6873   26.0623 H   0  0  0  0  0  0  0  0  0  0  0  0
    3.3530    2.0275   27.1730 H   0  0  0  0  0  0  0  0  0  0  0  0
    0.6684    0.8882   26.7105 H   0  0  0  0  0  0  0  0  0  0  0  0
    2.3554    0.8532   29.1199 H   0  0  0  0  0  0  0  0  0  0  0  0
    2.1235   -0.5257   28.0295 H   0  0  0  0  0  0  0  0  0  0  0  0
   -0.7991   -1.2133   27.6460 H   0  0  0  0  0  0  0  0  0  0  0  0
   -2.5038   -1.3260   29.8330 H   0  0  0  0  0  0  0  0  0  0  0  0
  1  2  2  0
  2  3  1  0
  3  4  1  0
  4  5  1  0
  5  6  2  0
  5  7  1  0
  7  8  2  0
  8  9  1  0
  9 10  2  0
 10 11  1  0
  2 12  1  0
 12 13  1  0
 13 14  1  0
 14 15  1  0
 14 16  1  0
 16 17  1  0
 17 18  1  0
 18 19  1  0
 19 20  1  0
 20 21  2  0
 21 22  1  0
 22 23  1  0
 11  7  1  0
 23 19  2  0
  3 24  1  0
  3 25  1  0
  4 26  1  0
  8 27  1  0
  9 28  1  0
 10 29  1  0
 12 30  1  0
 13 31  1  0
 13 32  1  0
 14 33  1  0
 15 34  1  0
 16 35  1  0
 16 36  1  0
 17 37  1  0
 18 38  1  0
 18 39  1  0
 20 40  1  0
 21 41  1  0
M  END
>  <Energy>  (324) 
292.24405472415577

>  <compound_id>  (324) 
39842

>  <target_id>  (324) 
1

>  <reference_id>  (324) 
59

>  <inspiration_ids>  (324) 
[76, 59]

>  <energy_score>  (324) 
196.66714104426785

>  <distance_score>  (324) 
8.729552271355978

>  <path>  (324) 
/opt/xchem-fragalysis-2/maxwin/BulkDock/SCRATCH/511017/C39842-P59/C39842-P59.minimised.mol

>  <scratch_subdir>  (324) 
/opt/xchem-fragalysis-2/maxwin/BulkDock/SCRATCH/511017/C39842-P59

>  <fragmenstein_runtime>  (324) 
18.058197736740112

>  <fragmenstein_outcome>  (324) 
too moved

>  <fragmenstein_mode>  (324) 
expansion

>  <fragmenstein_error>  (324) 


$$$$
C39843-P76
     RDKit          3D

 45 46  0  0  0  0  0  0  0  0999 V2000
   -0.4692   -2.9084   28.8756 C   0  0  0  0  0  0  0  0  0  0  0  0
    0.6082   -1.9021   28.9544 N   0  0  0  0  0  0  0  0  0  0  0  0
    1.8416   -2.5235   28.3912 C   0  0  0  0  0  0  0  0  0  0  0  0
    3.1426   -1.6445   28.2327 C   0  0  0  0  0  0  0  0  0  0  0  0
    3.7217   -1.2321   26.8770 N   0  0  0  0  0  0  0  0  0  0  0  0
    2.6048   -0.2519   26.9400 C   0  0  0  0  0  0  0  0  0  0  0  0
    3.7151   -1.9230   25.5901 C   0  0  0  0  0  0  0  0  0  0  0  0
    3.1789   -2.9383   25.2578 O   0  0  0  0  0  0  0  0  0  0  0  0
    4.6550   -1.1963   24.6117 C   0  0  0  0  0  0  0  0  0  0  0  0
    5.0193   -1.7971   23.0161 C   0  0  0  0  0  0  0  0  0  0  0  0
    5.7876   -1.7811   21.1925 C   0  0  0  0  0  0  0  0  0  0  0  0
    6.5750   -0.3955   20.2283 C   0  0  0  0  0  0  0  0  0  0  0  0
    6.1792    0.9987   20.3841 C   0  0  0  0  0  0  0  0  0  0  0  0
    6.7081    1.9767   19.5846 C   0  0  0  0  0  0  0  0  0  0  0  0
    7.8611    1.2961   18.6012 S   0  0  0  0  0  0  0  0  0  0  0  0
    7.6566   -0.2131   19.3954 C   0  0  0  0  0  0  0  0  0  0  0  0
    0.7964   -1.4718   30.3573 C   0  0  0  0  0  0  0  0  0  0  0  0
   -0.4419   -0.8348   30.9064 C   0  0  0  0  0  0  0  0  0  0  0  0
   -1.2432    0.1806   30.3313 C   0  0  0  0  0  0  0  0  0  0  0  0
   -2.2697    0.3369   31.2216 C   0  0  0  0  0  0  0  0  0  0  0  0
   -2.0930   -0.4982   32.2723 O   0  0  0  0  0  0  0  0  0  0  0  0
   -0.9435   -1.2411   32.0809 N   0  0  0  0  0  0  0  0  0  0  0  0
   -0.2896   -3.7565   29.5471 H   0  0  0  0  0  0  0  0  0  0  0  0
   -0.5594   -3.3027   27.8619 H   0  0  0  0  0  0  0  0  0  0  0  0
   -1.4469   -2.4771   29.1126 H   0  0  0  0  0  0  0  0  0  0  0  0
    2.1068   -3.3801   29.0278 H   0  0  0  0  0  0  0  0  0  0  0  0
    1.6120   -2.9442   27.4072 H   0  0  0  0  0  0  0  0  0  0  0  0
    3.2769   -0.8829   29.0176 H   0  0  0  0  0  0  0  0  0  0  0  0
    3.9275   -2.3610   28.5284 H   0  0  0  0  0  0  0  0  0  0  0  0
    1.6129   -0.6863   26.7861 H   0  0  0  0  0  0  0  0  0  0  0  0
    2.7569    0.4032   26.0722 H   0  0  0  0  0  0  0  0  0  0  0  0
    2.6465    0.4676   27.7724 H   0  0  0  0  0  0  0  0  0  0  0  0
    4.3477   -0.1516   24.6284 H   0  0  0  0  0  0  0  0  0  0  0  0
    5.5523   -1.3892   25.2223 H   0  0  0  0  0  0  0  0  0  0  0  0
    4.0471   -2.2725   23.0693 H   0  0  0  0  0  0  0  0  0  0  0  0
    5.8423   -2.3322   23.4926 H   0  0  0  0  0  0  0  0  0  0  0  0
    6.3967   -2.6586   21.0185 H   0  0  0  0  0  0  0  0  0  0  0  0
    5.1826   -2.3585   20.4833 H   0  0  0  0  0  0  0  0  0  0  0  0
    5.4831    1.2126   21.1585 H   0  0  0  0  0  0  0  0  0  0  0  0
    6.4692    3.0298   19.5732 H   0  0  0  0  0  0  0  0  0  0  0  0
    8.4375   -0.8557   19.1491 H   0  0  0  0  0  0  0  0  0  0  0  0
    1.5915   -0.7202   30.4131 H   0  0  0  0  0  0  0  0  0  0  0  0
    1.1042   -2.3177   30.9859 H   0  0  0  0  0  0  0  0  0  0  0  0
   -1.1013    0.6884   29.3900 H   0  0  0  0  0  0  0  0  0  0  0  0
   -3.1543    0.9523   31.2637 H   0  0  0  0  0  0  0  0  0  0  0  0
  1  2  1  0
  2  3  1  0
  3  4  1  0
  4  5  1  0
  5  6  1  0
  5  7  1  0
  7  8  2  0
  7  9  1  0
  9 10  1  0
 10 11  1  0
 11 12  1  0
 12 13  1  0
 13 14  2  0
 14 15  1  0
 15 16  1  0
  2 17  1  0
 17 18  1  0
 18 19  1  0
 19 20  2  0
 20 21  1  0
 21 22  1  0
 16 12  2  0
 22 18  2  0
  1 23  1  0
  1 24  1  0
  1 25  1  0
  3 26  1  0
  3 27  1  0
  4 28  1  0
  4 29  1  0
  6 30  1  0
  6 31  1  0
  6 32  1  0
  9 33  1  0
  9 34  1  0
 10 35  1  0
 10 36  1  0
 11 37  1  0
 11 38  1  0
 13 39  1  0
 14 40  1  0
 16 41  1  0
 17 42  1  0
 17 43  1  0
 19 44  1  0
 20 45  1  0
M  END
>  <Energy>  (325) 
303.06353145061991

>  <compound_id>  (325) 
39843

>  <target_id>  (325) 
1

>  <reference_id>  (325) 
76

>  <inspiration_ids>  (325) 
[76, 59]

>  <energy_score>  (325) 
232.47237664507378

>  <distance_score>  (325) 
7.679079942586699

>  <path>  (325) 
/opt/xchem-fragalysis-2/maxwin/BulkDock/SCRATCH/511017/C39843-P76/C39843-P76.minimised.mol

>  <scratch_subdir>  (325) 
/opt/xchem-fragalysis-2/maxwin/BulkDock/SCRATCH/511017/C39843-P76

>  <fragmenstein_runtime>  (325) 
16.482210397720337

>  <fragmenstein_outcome>  (325) 
too moved

>  <fragmenstein_mode>  (325) 
expansion

>  <fragmenstein_error>  (325) 


$$$$
C39843-P59
     RDKit          3D

 45 46  0  0  0  0  0  0  0  0999 V2000
    3.4199   -2.7090   30.3636 C   0  0  0  0  0  0  0  0  0  0  0  0
    2.4631   -1.8497   29.6641 N   0  0  0  0  0  0  0  0  0  0  0  0
    2.7306   -1.8080   28.2012 C   0  0  0  0  0  0  0  0  0  0  0  0
    4.2403   -1.5888   27.6997 C   0  0  0  0  0  0  0  0  0  0  0  0
    4.3770   -1.1664   26.2141 N   0  0  0  0  0  0  0  0  0  0  0  0
    4.5319   -2.6415   26.0310 C   0  0  0  0  0  0  0  0  0  0  0  0
    5.4405   -0.4670   25.5243 C   0  0  0  0  0  0  0  0  0  0  0  0
    6.5271   -0.1176   25.9128 O   0  0  0  0  0  0  0  0  0  0  0  0
    4.9696   -0.0330   24.0418 C   0  0  0  0  0  0  0  0  0  0  0  0
    4.9813   -0.8261   22.3353 C   0  0  0  0  0  0  0  0  0  0  0  0
    6.0536   -0.9742   20.6089 C   0  0  0  0  0  0  0  0  0  0  0  0
    6.4525    0.2555   19.3266 C   0  0  0  0  0  0  0  0  0  0  0  0
    7.1868    1.5173   19.4260 C   0  0  0  0  0  0  0  0  0  0  0  0
    7.6811    2.0249   18.2458 C   0  0  0  0  0  0  0  0  0  0  0  0
    7.1725    1.1043   16.9364 S   0  0  0  0  0  0  0  0  0  0  0  0
    6.2341    0.0997   17.9537 C   0  0  0  0  0  0  0  0  0  0  0  0
    1.0809   -2.3178   29.9674 C   0  0  0  0  0  0  0  0  0  0  0  0
    0.0432   -1.2691   29.7307 C   0  0  0  0  0  0  0  0  0  0  0  0
   -0.6036   -0.9273   28.5197 C   0  0  0  0  0  0  0  0  0  0  0  0
   -1.4806    0.0608   28.8715 C   0  0  0  0  0  0  0  0  0  0  0  0
   -1.4065    0.2738   30.2058 O   0  0  0  0  0  0  0  0  0  0  0  0
   -0.4560   -0.5622   30.7570 N   0  0  0  0  0  0  0  0  0  0  0  0
    4.4359   -2.3088   30.2897 H   0  0  0  0  0  0  0  0  0  0  0  0
    3.2003   -2.7474   31.4369 H   0  0  0  0  0  0  0  0  0  0  0  0
    3.4131   -3.7331   29.9738 H   0  0  0  0  0  0  0  0  0  0  0  0
    2.1467   -0.9862   27.7709 H   0  0  0  0  0  0  0  0  0  0  0  0
    2.3516   -2.7328   27.7538 H   0  0  0  0  0  0  0  0  0  0  0  0
    4.5561   -0.6626   28.2063 H   0  0  0  0  0  0  0  0  0  0  0  0
    4.9696   -2.3118   28.1014 H   0  0  0  0  0  0  0  0  0  0  0  0
    4.5896   -2.7786   24.9485 H   0  0  0  0  0  0  0  0  0  0  0  0
    5.5115   -3.0180   26.3653 H   0  0  0  0  0  0  0  0  0  0  0  0
    3.6981   -3.2815   26.3373 H   0  0  0  0  0  0  0  0  0  0  0  0
    3.9234    0.0572   24.3588 H   0  0  0  0  0  0  0  0  0  0  0  0
    5.2185    1.0249   23.9121 H   0  0  0  0  0  0  0  0  0  0  0  0
    4.5377    0.0190   21.9145 H   0  0  0  0  0  0  0  0  0  0  0  0
    4.6269   -1.7816   22.7071 H   0  0  0  0  0  0  0  0  0  0  0  0
    7.1108   -1.2597   20.6913 H   0  0  0  0  0  0  0  0  0  0  0  0
    5.6659   -1.9365   20.2559 H   0  0  0  0  0  0  0  0  0  0  0  0
    7.4493    2.0439   20.3245 H   0  0  0  0  0  0  0  0  0  0  0  0
    8.3060    2.8987   18.1155 H   0  0  0  0  0  0  0  0  0  0  0  0
    5.6398   -0.6401   17.4454 H   0  0  0  0  0  0  0  0  0  0  0  0
    1.0149   -2.6033   31.0267 H   0  0  0  0  0  0  0  0  0  0  0  0
    0.8406   -3.2244   29.3965 H   0  0  0  0  0  0  0  0  0  0  0  0
   -0.4475   -1.3324   27.5329 H   0  0  0  0  0  0  0  0  0  0  0  0
   -2.1894    0.6730   28.3342 H   0  0  0  0  0  0  0  0  0  0  0  0
  1  2  1  0
  2  3  1  0
  3  4  1  0
  4  5  1  0
  5  6  1  0
  5  7  1  0
  7  8  2  0
  7  9  1  0
  9 10  1  0
 10 11  1  0
 11 12  1  0
 12 13  1  0
 13 14  2  0
 14 15  1  0
 15 16  1  0
  2 17  1  0
 17 18  1  0
 18 19  1  0
 19 20  2  0
 20 21  1  0
 21 22  1  0
 16 12  2  0
 22 18  2  0
  1 23  1  0
  1 24  1  0
  1 25  1  0
  3 26  1  0
  3 27  1  0
  4 28  1  0
  4 29  1  0
  6 30  1  0
  6 31  1  0
  6 32  1  0
  9 33  1  0
  9 34  1  0
 10 35  1  0
 10 36  1  0
 11 37  1  0
 11 38  1  0
 13 39  1  0
 14 40  1  0
 16 41  1  0
 17 42  1  0
 17 43  1  0
 19 44  1  0
 20 45  1  0
M  END
>  <Energy>  (326) 
307.31660083137581

>  <compound_id>  (326) 
39843

>  <target_id>  (326) 
1

>  <reference_id>  (326) 
59

>  <inspiration_ids>  (326) 
[76, 59]

>  <energy_score>  (326) 
236.72544602582866

>  <distance_score>  (326) 
8.110893324580248

>  <path>  (326) 
/opt/xchem-fragalysis-2/maxwin/BulkDock/SCRATCH/511017/C39843-P59/C39843-P59.minimised.mol

>  <scratch_subdir>  (326) 
/opt/xchem-fragalysis-2/maxwin/BulkDock/SCRATCH/511017/C39843-P59

>  <fragmenstein_runtime>  (326) 
10.630168676376343

>  <fragmenstein_outcome>  (326) 
too moved

>  <fragmenstein_mode>  (326) 
expansion

>  <fragmenstein_error>  (326) 


$$$$
C39844-P76
     RDKit          3D

 41 42  0  0  0  0  0  0  0  0999 V2000
    4.6522   -0.8129   28.4854 C   0  0  0  0  0  0  0  0  0  0  0  0
    3.2468   -1.1616   28.0594 N   0  0  0  0  0  0  0  0  0  0  0  0
    4.0076   -1.8352   26.8891 C   0  0  0  0  0  0  0  0  0  0  0  0
    3.1030   -2.3226   25.6844 C   0  0  0  0  0  0  0  0  0  0  0  0
    3.7460   -2.1865   24.3784 N   0  0  0  0  0  0  0  0  0  0  0  0
    4.4058   -1.0843   23.7621 C   0  0  0  0  0  0  0  0  0  0  0  0
    4.5671   -0.0167   24.2349 O   0  0  0  0  0  0  0  0  0  0  0  0
    5.3254   -1.2954   21.8989 C   0  0  0  0  0  0  0  0  0  0  0  0
    6.5467   -0.2020   20.6198 C   0  0  0  0  0  0  0  0  0  0  0  0
    6.8236   -0.2578   18.9569 C   0  0  0  0  0  0  0  0  0  0  0  0
    7.4291    0.7071   18.1896 C   0  0  0  0  0  0  0  0  0  0  0  0
    8.2496    1.7971   19.1097 S   0  0  0  0  0  0  0  0  0  0  0  0
    7.4782    1.1839   20.4881 C   0  0  0  0  0  0  0  0  0  0  0  0
    2.4195    0.0077   28.0875 C   0  0  0  0  0  0  0  0  0  0  0  0
    2.1765    0.8146   27.2298 O   0  0  0  0  0  0  0  0  0  0  0  0
    1.8893    0.2182   29.5102 C   0  0  0  0  0  0  0  0  0  0  0  0
    0.3861    0.4865   29.5535 C   0  0  0  0  0  0  0  0  0  0  0  0
   -0.3850   -0.7804   29.5373 C   0  0  0  0  0  0  0  0  0  0  0  0
   -0.3466   -1.7890   28.5550 C   0  0  0  0  0  0  0  0  0  0  0  0
   -1.1376   -2.7744   29.0670 C   0  0  0  0  0  0  0  0  0  0  0  0
   -1.6632   -2.3772   30.2492 O   0  0  0  0  0  0  0  0  0  0  0  0
   -1.1893   -1.1125   30.5559 N   0  0  0  0  0  0  0  0  0  0  0  0
    5.3293   -1.6599   28.6721 H   0  0  0  0  0  0  0  0  0  0  0  0
    5.0978    0.0059   27.8990 H   0  0  0  0  0  0  0  0  0  0  0  0
    4.5449   -0.3643   29.4844 H   0  0  0  0  0  0  0  0  0  0  0  0
    4.7611   -1.1884   26.4192 H   0  0  0  0  0  0  0  0  0  0  0  0
    4.4328   -2.7413   27.3179 H   0  0  0  0  0  0  0  0  0  0  0  0
    2.3678   -1.5181   25.6766 H   0  0  0  0  0  0  0  0  0  0  0  0
    2.5814   -3.2340   25.8578 H   0  0  0  0  0  0  0  0  0  0  0  0
    3.6858   -2.9122   23.7210 H   0  0  0  0  0  0  0  0  0  0  0  0
    5.3865   -2.2656   21.3575 H   0  0  0  0  0  0  0  0  0  0  0  0
    5.7372   -1.8702   22.7283 H   0  0  0  0  0  0  0  0  0  0  0  0
    6.2274   -0.9047   18.3236 H   0  0  0  0  0  0  0  0  0  0  0  0
    7.3824    0.7852   17.1172 H   0  0  0  0  0  0  0  0  0  0  0  0
    7.6780    1.8720   21.2898 H   0  0  0  0  0  0  0  0  0  0  0  0
    2.1548   -0.6256   30.1588 H   0  0  0  0  0  0  0  0  0  0  0  0
    2.4210    1.0965   29.8985 H   0  0  0  0  0  0  0  0  0  0  0  0
    0.1571    1.0414   30.4722 H   0  0  0  0  0  0  0  0  0  0  0  0
    0.0675    1.1184   28.7163 H   0  0  0  0  0  0  0  0  0  0  0  0
    0.2149   -1.8123   27.6331 H   0  0  0  0  0  0  0  0  0  0  0  0
   -1.4077   -3.7586   28.7272 H   0  0  0  0  0  0  0  0  0  0  0  0
  1  2  1  0
  2  3  1  0
  3  4  1  0
  4  5  1  0
  5  6  1  0
  6  7  2  0
  6  8  1  0
  8  9  1  0
  9 10  1  0
 10 11  2  0
 11 12  1  0
 12 13  1  0
  2 14  1  0
 14 15  2  0
 14 16  1  0
 16 17  1  0
 17 18  1  0
 18 19  1  0
 19 20  2  0
 20 21  1  0
 21 22  1  0
 13  9  2  0
 22 18  2  0
  1 23  1  0
  1 24  1  0
  1 25  1  0
  3 26  1  0
  3 27  1  0
  4 28  1  0
  4 29  1  0
  5 30  1  0
  8 31  1  0
  8 32  1  0
 10 33  1  0
 11 34  1  0
 13 35  1  0
 16 36  1  0
 16 37  1  0
 17 38  1  0
 17 39  1  0
 19 40  1  0
 20 41  1  0
M  END
>  <Energy>  (327) 
416.75378995025915

>  <compound_id>  (327) 
39844

>  <target_id>  (327) 
1

>  <reference_id>  (327) 
76

>  <inspiration_ids>  (327) 
[76, 59]

>  <energy_score>  (327) 
374.34058741333945

>  <distance_score>  (327) 
7.996790275908802

>  <path>  (327) 
/opt/xchem-fragalysis-2/maxwin/BulkDock/SCRATCH/511017/C39844-P76/C39844-P76.minimised.mol

>  <scratch_subdir>  (327) 
/opt/xchem-fragalysis-2/maxwin/BulkDock/SCRATCH/511017/C39844-P76

>  <fragmenstein_runtime>  (327) 
15.145930528640747

>  <fragmenstein_outcome>  (327) 
too moved

>  <fragmenstein_mode>  (327) 
expansion

>  <fragmenstein_error>  (327) 


$$$$
C39844-P59
     RDKit          3D

 41 42  0  0  0  0  0  0  0  0999 V2000
    4.0659   -5.3983   25.8232 C   0  0  0  0  0  0  0  0  0  0  0  0
    2.8844   -6.3432   25.9399 N   0  0  0  0  0  0  0  0  0  0  0  0
    2.1671   -5.1915   25.0809 C   0  0  0  0  0  0  0  0  0  0  0  0
    0.7927   -4.7071   23.4772 C   0  0  0  0  0  0  0  0  0  0  0  0
    1.8153   -4.2482   22.0202 N   0  0  0  0  0  0  0  0  0  0  0  0
    3.1597   -3.1550   21.8623 C   0  0  0  0  0  0  0  0  0  0  0  0
    3.4873   -2.4204   22.7987 O   0  0  0  0  0  0  0  0  0  0  0  0
    4.6890   -3.0061   20.2278 C   0  0  0  0  0  0  0  0  0  0  0  0
    4.5793   -2.2373   18.2289 C   0  0  0  0  0  0  0  0  0  0  0  0
    5.0384   -0.9093   17.3332 C   0  0  0  0  0  0  0  0  0  0  0  0
    4.4674   -0.7587   16.0917 C   0  0  0  0  0  0  0  0  0  0  0  0
    3.4531   -2.0445   15.6979 S   0  0  0  0  0  0  0  0  0  0  0  0
    3.7402   -2.8699   17.1644 C   0  0  0  0  0  0  0  0  0  0  0  0
    3.2758   -7.6415   25.5934 C   0  0  0  0  0  0  0  0  0  0  0  0
    3.2615   -8.2055   24.5352 O   0  0  0  0  0  0  0  0  0  0  0  0
    3.6667   -8.3208   26.9443 C   0  0  0  0  0  0  0  0  0  0  0  0
    3.9524   -7.5027   28.2508 C   0  0  0  0  0  0  0  0  0  0  0  0
    2.9108   -6.6241   28.9059 C   0  0  0  0  0  0  0  0  0  0  0  0
    1.9300   -6.9771   29.8684 C   0  0  0  0  0  0  0  0  0  0  0  0
    1.3489   -5.7867   30.2284 C   0  0  0  0  0  0  0  0  0  0  0  0
    1.9414   -4.7745   29.5544 O   0  0  0  0  0  0  0  0  0  0  0  0
    2.9451   -5.2884   28.7578 N   0  0  0  0  0  0  0  0  0  0  0  0
    4.9071   -5.9092   26.3099 H   0  0  0  0  0  0  0  0  0  0  0  0
    4.4861   -5.2870   24.8292 H   0  0  0  0  0  0  0  0  0  0  0  0
    3.9787   -4.4820   26.4257 H   0  0  0  0  0  0  0  0  0  0  0  0
    1.5994   -5.2940   26.0501 H   0  0  0  0  0  0  0  0  0  0  0  0
    2.6968   -4.2018   25.1677 H   0  0  0  0  0  0  0  0  0  0  0  0
    0.2363   -3.8213   23.4310 H   0  0  0  0  0  0  0  0  0  0  0  0
    0.3792   -5.6491   23.1668 H   0  0  0  0  0  0  0  0  0  0  0  0
    1.6612   -4.6932   21.1195 H   0  0  0  0  0  0  0  0  0  0  0  0
    5.0155   -3.9897   19.8366 H   0  0  0  0  0  0  0  0  0  0  0  0
    5.5814   -2.5543   20.6732 H   0  0  0  0  0  0  0  0  0  0  0  0
    5.7600   -0.1719   17.6806 H   0  0  0  0  0  0  0  0  0  0  0  0
    4.6311    0.0489   15.3925 H   0  0  0  0  0  0  0  0  0  0  0  0
    3.2432   -3.8300   17.2466 H   0  0  0  0  0  0  0  0  0  0  0  0
    2.8532   -9.0245   27.1639 H   0  0  0  0  0  0  0  0  0  0  0  0
    4.5639   -8.9154   26.7299 H   0  0  0  0  0  0  0  0  0  0  0  0
    4.8668   -6.9145   28.1118 H   0  0  0  0  0  0  0  0  0  0  0  0
    4.2352   -8.2485   29.0088 H   0  0  0  0  0  0  0  0  0  0  0  0
    1.6952   -7.9581   30.2525 H   0  0  0  0  0  0  0  0  0  0  0  0
    0.5624   -5.4990   30.9094 H   0  0  0  0  0  0  0  0  0  0  0  0
  1  2  1  0
  2  3  1  0
  3  4  1  0
  4  5  1  0
  5  6  1  0
  6  7  2  0
  6  8  1  0
  8  9  1  0
  9 10  1  0
 10 11  2  0
 11 12  1  0
 12 13  1  0
  2 14  1  0
 14 15  2  0
 14 16  1  0
 16 17  1  0
 17 18  1  0
 18 19  1  0
 19 20  2  0
 20 21  1  0
 21 22  1  0
 13  9  2  0
 22 18  2  0
  1 23  1  0
  1 24  1  0
  1 25  1  0
  3 26  1  0
  3 27  1  0
  4 28  1  0
  4 29  1  0
  5 30  1  0
  8 31  1  0
  8 32  1  0
 10 33  1  0
 11 34  1  0
 13 35  1  0
 16 36  1  0
 16 37  1  0
 17 38  1  0
 17 39  1  0
 19 40  1  0
 20 41  1  0
M  END
>  <Energy>  (328) 
632.2865773307409

>  <compound_id>  (328) 
39844

>  <target_id>  (328) 
1

>  <reference_id>  (328) 
59

>  <inspiration_ids>  (328) 
[76, 59]

>  <energy_score>  (328) 
589.8733747938201

>  <distance_score>  (328) 
10.220763389252092

>  <path>  (328) 
/opt/xchem-fragalysis-2/maxwin/BulkDock/SCRATCH/511017/C39844-P59/C39844-P59.minimised.mol

>  <scratch_subdir>  (328) 
/opt/xchem-fragalysis-2/maxwin/BulkDock/SCRATCH/511017/C39844-P59

>  <fragmenstein_runtime>  (328) 
14.25199031829834

>  <fragmenstein_outcome>  (328) 
too moved

>  <fragmenstein_mode>  (328) 
expansion

>  <fragmenstein_error>  (328) 


$$$$
C39849-P76
     RDKit          3D

 44 45  0  0  0  0  0  0  0  0999 V2000
    5.1328    0.3866   30.1243 C   0  0  0  0  0  0  0  0  0  0  0  0
    5.9794   -0.2811   29.0503 C   0  0  0  0  0  0  0  0  0  0  0  0
    6.0031    0.4755   27.7007 C   0  0  0  0  0  0  0  0  0  0  0  0
    4.8714    0.0002   26.7541 C   0  0  0  0  0  0  0  0  0  0  0  0
    3.5494   -0.0587   27.3245 N   0  0  0  0  0  0  0  0  0  0  0  0
    2.5921    0.9680   27.5776 C   0  0  0  0  0  0  0  0  0  0  0  0
    2.6701    2.1542   27.4544 O   0  0  0  0  0  0  0  0  0  0  0  0
    1.3168    0.4072   28.0834 C   0  0  0  0  0  0  0  0  0  0  0  0
    0.1261    1.0912   28.2694 C   0  0  0  0  0  0  0  0  0  0  0  0
   -0.9274    0.2593   28.7467 C   0  0  0  0  0  0  0  0  0  0  0  0
   -0.5131   -1.0411   28.9303 C   0  0  0  0  0  0  0  0  0  0  0  0
   -1.3049   -2.2141   29.3902 C   0  0  0  0  0  0  0  0  0  0  0  0
    1.1415   -1.2338   28.5555 S   0  0  0  0  0  0  0  0  0  0  0  0
    7.3208    0.3422   27.0251 N   0  0  0  0  0  0  0  0  0  0  0  0
    8.2656    1.3457   26.5812 C   0  0  0  0  0  0  0  0  0  0  0  0
    8.2619    2.5365   26.7168 O   0  0  0  0  0  0  0  0  0  0  0  0
    9.4516    0.7098   25.7951 C   0  0  0  0  0  0  0  0  0  0  0  0
   10.0374    1.7068   24.7554 C   0  0  0  0  0  0  0  0  0  0  0  0
   11.1343    1.2209   23.8549 C   0  0  0  0  0  0  0  0  0  0  0  0
   12.3049    0.5011   24.1880 C   0  0  0  0  0  0  0  0  0  0  0  0
   13.0597    0.5269   23.0452 C   0  0  0  0  0  0  0  0  0  0  0  0
   12.3803    1.1766   22.0714 O   0  0  0  0  0  0  0  0  0  0  0  0
   11.1574    1.5963   22.5648 N   0  0  0  0  0  0  0  0  0  0  0  0
    5.4400    1.4261   30.2762 H   0  0  0  0  0  0  0  0  0  0  0  0
    4.0697    0.3734   29.8809 H   0  0  0  0  0  0  0  0  0  0  0  0
    5.2558   -0.1410   31.0759 H   0  0  0  0  0  0  0  0  0  0  0  0
    5.6573   -1.3194   28.9061 H   0  0  0  0  0  0  0  0  0  0  0  0
    7.0045   -0.3352   29.4401 H   0  0  0  0  0  0  0  0  0  0  0  0
    5.8726    1.5478   27.8915 H   0  0  0  0  0  0  0  0  0  0  0  0
    5.0944   -0.9999   26.3685 H   0  0  0  0  0  0  0  0  0  0  0  0
    4.8118    0.6830   25.9055 H   0  0  0  0  0  0  0  0  0  0  0  0
    3.1081   -0.9626   27.4622 H   0  0  0  0  0  0  0  0  0  0  0  0
    0.0227    2.1485   28.0506 H   0  0  0  0  0  0  0  0  0  0  0  0
   -1.9377    0.6021   28.9341 H   0  0  0  0  0  0  0  0  0  0  0  0
   -1.1053   -3.0959   28.7725 H   0  0  0  0  0  0  0  0  0  0  0  0
   -2.3770   -2.0061   29.3343 H   0  0  0  0  0  0  0  0  0  0  0  0
   -1.0620   -2.4563   30.4299 H   0  0  0  0  0  0  0  0  0  0  0  0
    7.6015   -0.5616   26.6601 H   0  0  0  0  0  0  0  0  0  0  0  0
    9.1366   -0.2168   25.3088 H   0  0  0  0  0  0  0  0  0  0  0  0
   10.2212    0.4443   26.5296 H   0  0  0  0  0  0  0  0  0  0  0  0
   10.4432    2.5668   25.3071 H   0  0  0  0  0  0  0  0  0  0  0  0
    9.2223    2.1228   24.1509 H   0  0  0  0  0  0  0  0  0  0  0  0
   12.5887    0.0796   25.1395 H   0  0  0  0  0  0  0  0  0  0  0  0
   14.0283    0.1422   22.7652 H   0  0  0  0  0  0  0  0  0  0  0  0
  1  2  1  0
  2  3  1  0
  3  4  1  0
  4  5  1  0
  5  6  1  0
  6  7  2  0
  6  8  1  0
  8  9  2  0
  9 10  1  0
 10 11  2  0
 11 12  1  0
 11 13  1  0
  3 14  1  0
 14 15  1  0
 15 16  2  0
 15 17  1  0
 17 18  1  0
 18 19  1  0
 19 20  1  0
 20 21  2  0
 21 22  1  0
 22 23  1  0
 13  8  1  0
 23 19  2  0
  1 24  1  0
  1 25  1  0
  1 26  1  0
  2 27  1  0
  2 28  1  0
  3 29  1  0
  4 30  1  0
  4 31  1  0
  5 32  1  0
  9 33  1  0
 10 34  1  0
 12 35  1  0
 12 36  1  0
 12 37  1  0
 14 38  1  0
 17 39  1  0
 17 40  1  0
 18 41  1  0
 18 42  1  0
 20 43  1  0
 21 44  1  0
M  END
>  <Energy>  (329) 
-1.591373372608857

>  <compound_id>  (329) 
39849

>  <target_id>  (329) 
1

>  <reference_id>  (329) 
76

>  <inspiration_ids>  (329) 
[76, 59]

>  <energy_score>  (329) 
-46.00860882450269

>  <distance_score>  (329) 
9.473185876643837

>  <path>  (329) 
/opt/xchem-fragalysis-2/maxwin/BulkDock/SCRATCH/511017/C39849-P76/C39849-P76.minimised.mol

>  <scratch_subdir>  (329) 
/opt/xchem-fragalysis-2/maxwin/BulkDock/SCRATCH/511017/C39849-P76

>  <fragmenstein_runtime>  (329) 
25.94831418991089

>  <fragmenstein_outcome>  (329) 
too moved

>  <fragmenstein_mode>  (329) 
expansion

>  <fragmenstein_error>  (329) 


$$$$
C39849-P59
     RDKit          3D

 44 45  0  0  0  0  0  0  0  0999 V2000
    2.2216   -0.0741   27.7630 C   0  0  0  0  0  0  0  0  0  0  0  0
    1.8667   -1.2215   28.6957 C   0  0  0  0  0  0  0  0  0  0  0  0
    3.0683   -1.6721   29.5572 C   0  0  0  0  0  0  0  0  0  0  0  0
    2.6490   -2.7324   30.6068 C   0  0  0  0  0  0  0  0  0  0  0  0
    1.4370   -2.3592   31.2927 N   0  0  0  0  0  0  0  0  0  0  0  0
    0.1143   -2.8868   31.2100 C   0  0  0  0  0  0  0  0  0  0  0  0
   -0.3142   -3.8266   30.6094 O   0  0  0  0  0  0  0  0  0  0  0  0
   -0.8457   -2.0321   31.9293 C   0  0  0  0  0  0  0  0  0  0  0  0
   -2.2103   -1.9807   31.7120 C   0  0  0  0  0  0  0  0  0  0  0  0
   -2.8714   -1.0669   32.5770 C   0  0  0  0  0  0  0  0  0  0  0  0
   -1.9927   -0.4294   33.4257 C   0  0  0  0  0  0  0  0  0  0  0  0
   -2.2916    0.5578   34.5012 C   0  0  0  0  0  0  0  0  0  0  0  0
   -0.3809   -0.9269   33.1520 S   0  0  0  0  0  0  0  0  0  0  0  0
    4.1946   -2.1667   28.7661 N   0  0  0  0  0  0  0  0  0  0  0  0
    5.5773   -2.3535   29.1098 C   0  0  0  0  0  0  0  0  0  0  0  0
    6.1788   -2.0777   30.1084 O   0  0  0  0  0  0  0  0  0  0  0  0
    6.3424   -3.0729   27.9891 C   0  0  0  0  0  0  0  0  0  0  0  0
    7.0898   -2.1055   27.0642 C   0  0  0  0  0  0  0  0  0  0  0  0
    6.1615   -1.3394   26.2043 C   0  0  0  0  0  0  0  0  0  0  0  0
    6.0293    0.0615   26.0942 C   0  0  0  0  0  0  0  0  0  0  0  0
    5.0092    0.2283   25.1965 C   0  0  0  0  0  0  0  0  0  0  0  0
    4.5707   -0.9853   24.7841 O   0  0  0  0  0  0  0  0  0  0  0  0
    5.2608   -1.9778   25.4468 N   0  0  0  0  0  0  0  0  0  0  0  0
    1.3250    0.2818   27.2465 H   0  0  0  0  0  0  0  0  0  0  0  0
    2.9396   -0.3946   27.0076 H   0  0  0  0  0  0  0  0  0  0  0  0
    2.6494    0.7681   28.3158 H   0  0  0  0  0  0  0  0  0  0  0  0
    1.4912   -2.0658   28.1061 H   0  0  0  0  0  0  0  0  0  0  0  0
    1.0448   -0.8732   29.3297 H   0  0  0  0  0  0  0  0  0  0  0  0
    3.4436   -0.8010   30.1102 H   0  0  0  0  0  0  0  0  0  0  0  0
    2.4788   -3.6991   30.1191 H   0  0  0  0  0  0  0  0  0  0  0  0
    3.4351   -2.8644   31.3574 H   0  0  0  0  0  0  0  0  0  0  0  0
    1.4475   -1.5989   31.9645 H   0  0  0  0  0  0  0  0  0  0  0  0
   -2.7023   -2.5818   30.9579 H   0  0  0  0  0  0  0  0  0  0  0  0
   -3.9424   -0.9075   32.5881 H   0  0  0  0  0  0  0  0  0  0  0  0
   -1.6422    1.4359   34.4240 H   0  0  0  0  0  0  0  0  0  0  0  0
   -3.3285    0.9038   34.4355 H   0  0  0  0  0  0  0  0  0  0  0  0
   -2.1495    0.1045   35.4877 H   0  0  0  0  0  0  0  0  0  0  0  0
    4.0166   -2.5980   27.8619 H   0  0  0  0  0  0  0  0  0  0  0  0
    5.6753   -3.7424   27.4338 H   0  0  0  0  0  0  0  0  0  0  0  0
    7.0726   -3.7294   28.4805 H   0  0  0  0  0  0  0  0  0  0  0  0
    7.6799   -1.4091   27.6736 H   0  0  0  0  0  0  0  0  0  0  0  0
    7.8090   -2.6630   26.4610 H   0  0  0  0  0  0  0  0  0  0  0  0
    6.5899    0.8338   26.5978 H   0  0  0  0  0  0  0  0  0  0  0  0
    4.5125    1.0773   24.7508 H   0  0  0  0  0  0  0  0  0  0  0  0
  1  2  1  0
  2  3  1  0
  3  4  1  0
  4  5  1  0
  5  6  1  0
  6  7  2  0
  6  8  1  0
  8  9  2  0
  9 10  1  0
 10 11  2  0
 11 12  1  0
 11 13  1  0
  3 14  1  0
 14 15  1  0
 15 16  2  0
 15 17  1  0
 17 18  1  0
 18 19  1  0
 19 20  1  0
 20 21  2  0
 21 22  1  0
 22 23  1  0
 13  8  1  0
 23 19  2  0
  1 24  1  0
  1 25  1  0
  1 26  1  0
  2 27  1  0
  2 28  1  0
  3 29  1  0
  4 30  1  0
  4 31  1  0
  5 32  1  0
  9 33  1  0
 10 34  1  0
 12 35  1  0
 12 36  1  0
 12 37  1  0
 14 38  1  0
 17 39  1  0
 17 40  1  0
 18 41  1  0
 18 42  1  0
 20 43  1  0
 21 44  1  0
M  END
>  <Energy>  (330) 
-12.365329422124656

>  <compound_id>  (330) 
39849

>  <target_id>  (330) 
1

>  <reference_id>  (330) 
59

>  <inspiration_ids>  (330) 
[76, 59]

>  <energy_score>  (330) 
-56.78256487401933

>  <distance_score>  (330) 
9.285539852093724

>  <path>  (330) 
/opt/xchem-fragalysis-2/maxwin/BulkDock/SCRATCH/511017/C39849-P59/C39849-P59.minimised.mol

>  <scratch_subdir>  (330) 
/opt/xchem-fragalysis-2/maxwin/BulkDock/SCRATCH/511017/C39849-P59

>  <fragmenstein_runtime>  (330) 
13.706908702850342

>  <fragmenstein_outcome>  (330) 
too moved

>  <fragmenstein_mode>  (330) 
expansion

>  <fragmenstein_error>  (330) 


$$$$
C39850-P76
     RDKit          3D

 45 46  0  0  0  0  0  0  0  0999 V2000
   14.3955   -3.2041   20.2656 C   0  0  0  0  0  0  0  0  0  0  0  0
   13.2422   -4.1360   20.1944 C   0  0  0  0  0  0  0  0  0  0  0  0
   12.7136   -4.8413   19.1784 C   0  0  0  0  0  0  0  0  0  0  0  0
   11.8887   -5.6045   20.0542 C   0  0  0  0  0  0  0  0  0  0  0  0
   10.3955   -5.4181   20.3083 C   0  0  0  0  0  0  0  0  0  0  0  0
    8.4446   -4.6623   20.4579 C   0  0  0  0  0  0  0  0  0  0  0  0
    7.6696   -4.6007   22.3374 C   0  0  0  0  0  0  0  0  0  0  0  0
    6.7013   -3.6326   23.7154 C   0  0  0  0  0  0  0  0  0  0  0  0
    5.4934   -2.1586   24.2290 C   0  0  0  0  0  0  0  0  0  0  0  0
    4.7849   -1.8531   23.3105 O   0  0  0  0  0  0  0  0  0  0  0  0
    5.5172   -1.6753   25.6002 N   0  0  0  0  0  0  0  0  0  0  0  0
    4.6229   -0.7403   26.3145 C   0  0  0  0  0  0  0  0  0  0  0  0
    3.4429   -1.4648   27.0793 C   0  0  0  0  0  0  0  0  0  0  0  0
    2.5273   -0.6299   27.9200 N   0  0  0  0  0  0  0  0  0  0  0  0
    3.2337   -0.0930   29.0807 C   0  0  0  0  0  0  0  0  0  0  0  0
    1.3445   -1.4369   28.3190 C   0  0  0  0  0  0  0  0  0  0  0  0
    0.2401   -0.6175   28.9280 C   0  0  0  0  0  0  0  0  0  0  0  0
   -0.2402   -0.6663   30.2612 C   0  0  0  0  0  0  0  0  0  0  0  0
   -1.2760    0.2293   30.2828 C   0  0  0  0  0  0  0  0  0  0  0  0
   -1.4211    0.7821   29.0557 O   0  0  0  0  0  0  0  0  0  0  0  0
   -0.4799    0.2478   28.1962 N   0  0  0  0  0  0  0  0  0  0  0  0
   11.9913   -4.2299   21.4309 S   0  0  0  0  0  0  0  0  0  0  0  0
   14.2988   -2.4800   21.0789 H   0  0  0  0  0  0  0  0  0  0  0  0
   15.3163   -3.7724   20.4338 H   0  0  0  0  0  0  0  0  0  0  0  0
   14.5105   -2.6513   19.3279 H   0  0  0  0  0  0  0  0  0  0  0  0
   12.6175   -4.4429   18.1763 H   0  0  0  0  0  0  0  0  0  0  0  0
   12.3520   -6.3549   20.7223 H   0  0  0  0  0  0  0  0  0  0  0  0
    8.7388   -3.7486   20.0940 H   0  0  0  0  0  0  0  0  0  0  0  0
    7.5352   -4.9440   19.9159 H   0  0  0  0  0  0  0  0  0  0  0  0
    7.5671   -3.6816   21.7949 H   0  0  0  0  0  0  0  0  0  0  0  0
    7.2297   -5.5887   22.4520 H   0  0  0  0  0  0  0  0  0  0  0  0
    7.4800   -3.4135   24.4274 H   0  0  0  0  0  0  0  0  0  0  0  0
    6.4276   -3.1196   22.8197 H   0  0  0  0  0  0  0  0  0  0  0  0
    6.1929   -2.2145   26.1272 H   0  0  0  0  0  0  0  0  0  0  0  0
    5.2558   -0.1867   27.0126 H   0  0  0  0  0  0  0  0  0  0  0  0
    4.1965   -0.0482   25.5827 H   0  0  0  0  0  0  0  0  0  0  0  0
    2.8522   -1.9648   26.3025 H   0  0  0  0  0  0  0  0  0  0  0  0
    3.8722   -2.2648   27.6967 H   0  0  0  0  0  0  0  0  0  0  0  0
    4.0708    0.5412   28.7727 H   0  0  0  0  0  0  0  0  0  0  0  0
    2.5824    0.5514   29.6805 H   0  0  0  0  0  0  0  0  0  0  0  0
    3.6228   -0.8860   29.7294 H   0  0  0  0  0  0  0  0  0  0  0  0
    0.9215   -1.9313   27.4374 H   0  0  0  0  0  0  0  0  0  0  0  0
    1.6438   -2.2359   29.0102 H   0  0  0  0  0  0  0  0  0  0  0  0
    0.1187   -1.2704   31.0797 H   0  0  0  0  0  0  0  0  0  0  0  0
   -1.9722    0.5731   31.0339 H   0  0  0  0  0  0  0  0  0  0  0  0
  1  2  1  0
  2  3  2  0
  3  4  1  0
  4  5  2  0
  5  6  1  0
  6  7  1  0
  7  8  1  0
  8  9  1  0
  9 10  2  0
  9 11  1  0
 11 12  1  0
 12 13  1  0
 13 14  1  0
 14 15  1  0
 14 16  1  0
 16 17  1  0
 17 18  1  0
 18 19  2  0
 19 20  1  0
 20 21  1  0
  5 22  1  0
 22  2  1  0
 21 17  2  0
  1 23  1  0
  1 24  1  0
  1 25  1  0
  3 26  1  0
  4 27  1  0
  6 28  1  0
  6 29  1  0
  7 30  1  0
  7 31  1  0
  8 32  1  0
  8 33  1  0
 11 34  1  0
 12 35  1  0
 12 36  1  0
 13 37  1  0
 13 38  1  0
 15 39  1  0
 15 40  1  0
 15 41  1  0
 16 42  1  0
 16 43  1  0
 18 44  1  0
 19 45  1  0
M  END
>  <Energy>  (331) 
605.19290152367387

>  <compound_id>  (331) 
39850

>  <target_id>  (331) 
1

>  <reference_id>  (331) 
76

>  <inspiration_ids>  (331) 
[76, 59]

>  <energy_score>  (331) 
522.9393379021353

>  <distance_score>  (331) 
7.721393078743423

>  <path>  (331) 
/opt/xchem-fragalysis-2/maxwin/BulkDock/SCRATCH/511017/C39850-P76/C39850-P76.minimised.mol

>  <scratch_subdir>  (331) 
/opt/xchem-fragalysis-2/maxwin/BulkDock/SCRATCH/511017/C39850-P76

>  <fragmenstein_runtime>  (331) 
17.26301646232605

>  <fragmenstein_outcome>  (331) 
too moved

>  <fragmenstein_mode>  (331) 
expansion

>  <fragmenstein_error>  (331) 


$$$$
C39850-P59
     RDKit          3D

 45 46  0  0  0  0  0  0  0  0999 V2000
   12.0875   -6.6130   21.6355 C   0  0  0  0  0  0  0  0  0  0  0  0
   10.8138   -6.0556   21.1637 C   0  0  0  0  0  0  0  0  0  0  0  0
   10.0635   -5.6662   20.0636 C   0  0  0  0  0  0  0  0  0  0  0  0
    8.7489   -4.4164   20.2064 C   0  0  0  0  0  0  0  0  0  0  0  0
    7.9168   -4.4831   21.2134 C   0  0  0  0  0  0  0  0  0  0  0  0
    6.8457   -5.4036   22.6707 C   0  0  0  0  0  0  0  0  0  0  0  0
    6.1441   -5.2531   24.2860 C   0  0  0  0  0  0  0  0  0  0  0  0
    5.4538   -4.1755   25.2448 C   0  0  0  0  0  0  0  0  0  0  0  0
    4.2291   -4.7388   26.0732 C   0  0  0  0  0  0  0  0  0  0  0  0
    3.7743   -5.8015   25.7630 O   0  0  0  0  0  0  0  0  0  0  0  0
    3.8728   -3.8392   27.1522 N   0  0  0  0  0  0  0  0  0  0  0  0
    2.9174   -3.9922   28.2516 C   0  0  0  0  0  0  0  0  0  0  0  0
    2.3304   -2.7356   28.9640 C   0  0  0  0  0  0  0  0  0  0  0  0
    1.3128   -3.0548   30.0129 N   0  0  0  0  0  0  0  0  0  0  0  0
    1.8920   -3.8757   31.0826 C   0  0  0  0  0  0  0  0  0  0  0  0
    0.7337   -1.8305   30.6198 C   0  0  0  0  0  0  0  0  0  0  0  0
   -0.2168   -1.1282   29.7070 C   0  0  0  0  0  0  0  0  0  0  0  0
   -1.0063   -1.6566   28.6610 C   0  0  0  0  0  0  0  0  0  0  0  0
   -1.6577   -0.5695   28.1484 C   0  0  0  0  0  0  0  0  0  0  0  0
   -1.3287    0.5343   28.8599 O   0  0  0  0  0  0  0  0  0  0  0  0
   -0.4313    0.1882   29.8562 N   0  0  0  0  0  0  0  0  0  0  0  0
   10.4320   -4.5466   21.4799 S   0  0  0  0  0  0  0  0  0  0  0  0
   12.2939   -6.2966   22.6668 H   0  0  0  0  0  0  0  0  0  0  0  0
   12.0480   -7.7028   21.6875 H   0  0  0  0  0  0  0  0  0  0  0  0
   12.9336   -6.2547   21.0430 H   0  0  0  0  0  0  0  0  0  0  0  0
   10.5028   -5.5815   19.0767 H   0  0  0  0  0  0  0  0  0  0  0  0
    9.0040   -3.4193   20.3285 H   0  0  0  0  0  0  0  0  0  0  0  0
    6.4142   -6.2220   22.0676 H   0  0  0  0  0  0  0  0  0  0  0  0
    7.0929   -6.3903   23.1118 H   0  0  0  0  0  0  0  0  0  0  0  0
    6.8929   -5.6848   24.9747 H   0  0  0  0  0  0  0  0  0  0  0  0
    5.4264   -6.0879   24.2432 H   0  0  0  0  0  0  0  0  0  0  0  0
    6.1922   -3.9017   26.0131 H   0  0  0  0  0  0  0  0  0  0  0  0
    5.1618   -3.2435   24.7609 H   0  0  0  0  0  0  0  0  0  0  0  0
    4.4158   -2.9862   27.0650 H   0  0  0  0  0  0  0  0  0  0  0  0
    2.0978   -4.6057   27.8635 H   0  0  0  0  0  0  0  0  0  0  0  0
    3.4519   -4.6113   28.9795 H   0  0  0  0  0  0  0  0  0  0  0  0
    3.1562   -2.1558   29.3960 H   0  0  0  0  0  0  0  0  0  0  0  0
    1.8777   -2.1085   28.1875 H   0  0  0  0  0  0  0  0  0  0  0  0
    1.1515   -4.0719   31.8670 H   0  0  0  0  0  0  0  0  0  0  0  0
    2.1867   -4.8621   30.7124 H   0  0  0  0  0  0  0  0  0  0  0  0
    2.7620   -3.3958   31.5448 H   0  0  0  0  0  0  0  0  0  0  0  0
    0.1530   -2.0996   31.5126 H   0  0  0  0  0  0  0  0  0  0  0  0
    1.5314   -1.1517   30.9486 H   0  0  0  0  0  0  0  0  0  0  0  0
   -1.0630   -2.6762   28.3103 H   0  0  0  0  0  0  0  0  0  0  0  0
   -2.3463   -0.4226   27.3313 H   0  0  0  0  0  0  0  0  0  0  0  0
  1  2  1  0
  2  3  2  0
  3  4  1  0
  4  5  2  0
  5  6  1  0
  6  7  1  0
  7  8  1  0
  8  9  1  0
  9 10  2  0
  9 11  1  0
 11 12  1  0
 12 13  1  0
 13 14  1  0
 14 15  1  0
 14 16  1  0
 16 17  1  0
 17 18  1  0
 18 19  2  0
 19 20  1  0
 20 21  1  0
  5 22  1  0
 22  2  1  0
 21 17  2  0
  1 23  1  0
  1 24  1  0
  1 25  1  0
  3 26  1  0
  4 27  1  0
  6 28  1  0
  6 29  1  0
  7 30  1  0
  7 31  1  0
  8 32  1  0
  8 33  1  0
 11 34  1  0
 12 35  1  0
 12 36  1  0
 13 37  1  0
 13 38  1  0
 15 39  1  0
 15 40  1  0
 15 41  1  0
 16 42  1  0
 16 43  1  0
 18 44  1  0
 19 45  1  0
M  END
>  <Energy>  (332) 
585.7665575174077

>  <compound_id>  (332) 
39850

>  <target_id>  (332) 
1

>  <reference_id>  (332) 
59

>  <inspiration_ids>  (332) 
[76, 59]

>  <energy_score>  (332) 
503.5129938958745

>  <distance_score>  (332) 
7.381650842672474

>  <path>  (332) 
/opt/xchem-fragalysis-2/maxwin/BulkDock/SCRATCH/511017/C39850-P59/C39850-P59.minimised.mol

>  <scratch_subdir>  (332) 
/opt/xchem-fragalysis-2/maxwin/BulkDock/SCRATCH/511017/C39850-P59

>  <fragmenstein_runtime>  (332) 
16.091315746307373

>  <fragmenstein_outcome>  (332) 
too moved

>  <fragmenstein_mode>  (332) 
expansion

>  <fragmenstein_error>  (332) 


$$$$
C39852-P76
     RDKit          3D

 44 45  0  0  0  0  0  0  0  0999 V2000
    9.6488   -8.0542   22.5167 C   0  0  0  0  0  0  0  0  0  0  0  0
    8.7883   -6.8883   22.2304 C   0  0  0  0  0  0  0  0  0  0  0  0
    8.7140   -6.1847   21.0818 C   0  0  0  0  0  0  0  0  0  0  0  0
    8.0812   -4.9612   21.2907 C   0  0  0  0  0  0  0  0  0  0  0  0
    7.5344   -4.6075   22.6252 C   0  0  0  0  0  0  0  0  0  0  0  0
    6.3869   -3.2080   22.8568 C   0  0  0  0  0  0  0  0  0  0  0  0
    5.9099   -2.8244   21.7879 O   0  0  0  0  0  0  0  0  0  0  0  0
    5.9991   -2.6998   24.3122 N   0  0  0  0  0  0  0  0  0  0  0  0
    4.8796   -1.7109   24.8026 C   0  0  0  0  0  0  0  0  0  0  0  0
    4.6245   -1.0711   26.3081 C   0  0  0  0  0  0  0  0  0  0  0  0
    3.6150   -1.9266   27.1210 C   0  0  0  0  0  0  0  0  0  0  0  0
    5.9383   -0.9425   27.1041 C   0  0  0  0  0  0  0  0  0  0  0  0
    3.9842    0.3923   26.1543 C   0  0  0  0  0  0  0  0  0  0  0  0
    2.8943    0.6704   27.2125 N   0  0  0  0  0  0  0  0  0  0  0  0
    2.8158    1.9786   26.4758 C   0  0  0  0  0  0  0  0  0  0  0  0
    2.9955    0.9046   28.6145 C   0  0  0  0  0  0  0  0  0  0  0  0
    3.9630    1.0352   29.3174 O   0  0  0  0  0  0  0  0  0  0  0  0
    1.6522    0.8756   29.2575 C   0  0  0  0  0  0  0  0  0  0  0  0
    1.3904    0.8148   30.6546 C   0  0  0  0  0  0  0  0  0  0  0  0
    0.0273    0.7642   30.7556 C   0  0  0  0  0  0  0  0  0  0  0  0
   -0.5166    0.8055   29.5185 O   0  0  0  0  0  0  0  0  0  0  0  0
    0.4896    0.8753   28.5751 N   0  0  0  0  0  0  0  0  0  0  0  0
    7.5067   -6.3643   23.2094 S   0  0  0  0  0  0  0  0  0  0  0  0
    9.2555   -8.9514   22.0277 H   0  0  0  0  0  0  0  0  0  0  0  0
   10.6666   -7.8836   22.1504 H   0  0  0  0  0  0  0  0  0  0  0  0
    9.7150   -8.2518   23.5916 H   0  0  0  0  0  0  0  0  0  0  0  0
    9.2071   -6.3864   20.1741 H   0  0  0  0  0  0  0  0  0  0  0  0
    8.1023   -4.2501   20.5145 H   0  0  0  0  0  0  0  0  0  0  0  0
    6.6135   -3.1340   24.9795 H   0  0  0  0  0  0  0  0  0  0  0  0
    4.5883   -1.0669   24.0011 H   0  0  0  0  0  0  0  0  0  0  0  0
    4.0149   -2.3922   24.7292 H   0  0  0  0  0  0  0  0  0  0  0  0
    3.4908   -1.5787   28.1493 H   0  0  0  0  0  0  0  0  0  0  0  0
    3.9931   -2.9284   27.2223 H   0  0  0  0  0  0  0  0  0  0  0  0
    2.6366   -1.9754   26.6350 H   0  0  0  0  0  0  0  0  0  0  0  0
    5.7752   -0.4012   28.0417 H   0  0  0  0  0  0  0  0  0  0  0  0
    6.7017   -0.3940   26.5455 H   0  0  0  0  0  0  0  0  0  0  0  0
    6.3623   -1.9102   27.3803 H   0  0  0  0  0  0  0  0  0  0  0  0
    4.8340    1.0860   26.2341 H   0  0  0  0  0  0  0  0  0  0  0  0
    3.5291    0.3761   25.1629 H   0  0  0  0  0  0  0  0  0  0  0  0
    2.0144    2.5473   26.9713 H   0  0  0  0  0  0  0  0  0  0  0  0
    2.4561    1.9216   25.4394 H   0  0  0  0  0  0  0  0  0  0  0  0
    3.6892    2.6329   26.6213 H   0  0  0  0  0  0  0  0  0  0  0  0
    2.1153    0.7948   31.4546 H   0  0  0  0  0  0  0  0  0  0  0  0
   -0.6707    0.7005   31.5762 H   0  0  0  0  0  0  0  0  0  0  0  0
  1  2  1  0
  2  3  2  0
  3  4  1  0
  4  5  2  0
  5  6  1  0
  6  7  2  0
  6  8  1  0
  8  9  1  0
  9 10  1  0
 10 11  1  0
 10 12  1  0
 10 13  1  0
 13 14  1  0
 14 15  1  0
 14 16  1  0
 16 17  2  0
 16 18  1  0
 18 19  1  0
 19 20  2  0
 20 21  1  0
 21 22  1  0
  5 23  1  0
 23  2  1  0
 22 18  2  0
  1 24  1  0
  1 25  1  0
  1 26  1  0
  3 27  1  0
  4 28  1  0
  8 29  1  0
  9 30  1  0
  9 31  1  0
 11 32  1  0
 11 33  1  0
 11 34  1  0
 12 35  1  0
 12 36  1  0
 12 37  1  0
 13 38  1  0
 13 39  1  0
 15 40  1  0
 15 41  1  0
 15 42  1  0
 19 43  1  0
 20 44  1  0
M  END
>  <Energy>  (333) 
212.95627521278246

>  <compound_id>  (333) 
39852

>  <target_id>  (333) 
1

>  <reference_id>  (333) 
76

>  <inspiration_ids>  (333) 
[76, 59]

>  <energy_score>  (333) 
136.55706926273132

>  <distance_score>  (333) 
9.565148569876254

>  <path>  (333) 
/opt/xchem-fragalysis-2/maxwin/BulkDock/SCRATCH/511017/C39852-P76/C39852-P76.minimised.mol

>  <scratch_subdir>  (333) 
/opt/xchem-fragalysis-2/maxwin/BulkDock/SCRATCH/511017/C39852-P76

>  <fragmenstein_runtime>  (333) 
16.355127334594727

>  <fragmenstein_outcome>  (333) 
too moved

>  <fragmenstein_mode>  (333) 
expansion

>  <fragmenstein_error>  (333) 


$$$$
C39852-P59
     RDKit          3D

 44 45  0  0  0  0  0  0  0  0999 V2000
    8.6914    2.0764   17.1032 C   0  0  0  0  0  0  0  0  0  0  0  0
    7.7464    1.8459   18.2379 C   0  0  0  0  0  0  0  0  0  0  0  0
    7.2398    2.7228   19.1419 C   0  0  0  0  0  0  0  0  0  0  0  0
    6.4608    2.0575   20.1591 C   0  0  0  0  0  0  0  0  0  0  0  0
    6.1303    0.6667   20.0592 C   0  0  0  0  0  0  0  0  0  0  0  0
    5.5363   -0.8212   21.1959 C   0  0  0  0  0  0  0  0  0  0  0  0
    5.7065   -1.9814   20.7562 O   0  0  0  0  0  0  0  0  0  0  0  0
    4.9279   -0.4446   22.8273 N   0  0  0  0  0  0  0  0  0  0  0  0
    4.5930   -1.3649   24.0443 C   0  0  0  0  0  0  0  0  0  0  0  0
    4.6046   -0.5359   25.5381 C   0  0  0  0  0  0  0  0  0  0  0  0
    4.6989    1.0059   25.2957 C   0  0  0  0  0  0  0  0  0  0  0  0
    5.8726   -0.9760   26.3034 C   0  0  0  0  0  0  0  0  0  0  0  0
    3.3940   -0.5169   26.5699 C   0  0  0  0  0  0  0  0  0  0  0  0
    3.0570   -1.7155   27.4219 N   0  0  0  0  0  0  0  0  0  0  0  0
    1.9528   -0.7814   27.9151 C   0  0  0  0  0  0  0  0  0  0  0  0
    3.7404   -2.2897   28.5314 C   0  0  0  0  0  0  0  0  0  0  0  0
    4.7138   -1.9143   29.1291 O   0  0  0  0  0  0  0  0  0  0  0  0
    3.0254   -3.4856   29.0356 C   0  0  0  0  0  0  0  0  0  0  0  0
    3.3114   -4.1840   30.2387 C   0  0  0  0  0  0  0  0  0  0  0  0
    2.2594   -5.0422   30.4004 C   0  0  0  0  0  0  0  0  0  0  0  0
    1.3992   -4.8977   29.3690 O   0  0  0  0  0  0  0  0  0  0  0  0
    1.8823   -3.9476   28.4940 N   0  0  0  0  0  0  0  0  0  0  0  0
    7.2138    0.3054   18.5976 S   0  0  0  0  0  0  0  0  0  0  0  0
    9.1675    3.0583   17.1897 H   0  0  0  0  0  0  0  0  0  0  0  0
    9.4805    1.3192   17.0766 H   0  0  0  0  0  0  0  0  0  0  0  0
    8.1517    2.0462   16.1509 H   0  0  0  0  0  0  0  0  0  0  0  0
    7.4950    3.7747   19.1695 H   0  0  0  0  0  0  0  0  0  0  0  0
    6.2483    2.6432   21.0288 H   0  0  0  0  0  0  0  0  0  0  0  0
    4.7977    0.5555   22.9062 H   0  0  0  0  0  0  0  0  0  0  0  0
    5.2993   -2.1931   24.1091 H   0  0  0  0  0  0  0  0  0  0  0  0
    3.6596   -1.8220   23.7823 H   0  0  0  0  0  0  0  0  0  0  0  0
    5.5367    1.2699   24.6656 H   0  0  0  0  0  0  0  0  0  0  0  0
    4.8648    1.5700   26.2223 H   0  0  0  0  0  0  0  0  0  0  0  0
    3.7922    1.4006   24.8248 H   0  0  0  0  0  0  0  0  0  0  0  0
    6.7915   -0.7145   25.7736 H   0  0  0  0  0  0  0  0  0  0  0  0
    5.8716   -2.0584   26.4667 H   0  0  0  0  0  0  0  0  0  0  0  0
    5.9427   -0.4845   27.2800 H   0  0  0  0  0  0  0  0  0  0  0  0
    3.7084    0.2738   27.2746 H   0  0  0  0  0  0  0  0  0  0  0  0
    2.5667   -0.1701   25.9608 H   0  0  0  0  0  0  0  0  0  0  0  0
    1.1894   -0.4987   27.1791 H   0  0  0  0  0  0  0  0  0  0  0  0
    1.3673   -1.3691   28.6368 H   0  0  0  0  0  0  0  0  0  0  0  0
    2.3064    0.0543   28.5395 H   0  0  0  0  0  0  0  0  0  0  0  0
    4.1439   -4.0244   30.9079 H   0  0  0  0  0  0  0  0  0  0  0  0
    1.9805   -5.7675   31.1498 H   0  0  0  0  0  0  0  0  0  0  0  0
  1  2  1  0
  2  3  2  0
  3  4  1  0
  4  5  2  0
  5  6  1  0
  6  7  2  0
  6  8  1  0
  8  9  1  0
  9 10  1  0
 10 11  1  0
 10 12  1  0
 10 13  1  0
 13 14  1  0
 14 15  1  0
 14 16  1  0
 16 17  2  0
 16 18  1  0
 18 19  1  0
 19 20  2  0
 20 21  1  0
 21 22  1  0
  5 23  1  0
 23  2  1  0
 22 18  2  0
  1 24  1  0
  1 25  1  0
  1 26  1  0
  3 27  1  0
  4 28  1  0
  8 29  1  0
  9 30  1  0
  9 31  1  0
 11 32  1  0
 11 33  1  0
 11 34  1  0
 12 35  1  0
 12 36  1  0
 12 37  1  0
 13 38  1  0
 13 39  1  0
 15 40  1  0
 15 41  1  0
 15 42  1  0
 19 43  1  0
 20 44  1  0
M  END
>  <Energy>  (334) 
264.22895689080195

>  <compound_id>  (334) 
39852

>  <target_id>  (334) 
1

>  <reference_id>  (334) 
59

>  <inspiration_ids>  (334) 
[76, 59]

>  <energy_score>  (334) 
187.8297509407475

>  <distance_score>  (334) 
9.235814727999706

>  <path>  (334) 
/opt/xchem-fragalysis-2/maxwin/BulkDock/SCRATCH/511017/C39852-P59/C39852-P59.minimised.mol

>  <scratch_subdir>  (334) 
/opt/xchem-fragalysis-2/maxwin/BulkDock/SCRATCH/511017/C39852-P59

>  <fragmenstein_runtime>  (334) 
17.20923137664795

>  <fragmenstein_outcome>  (334) 
too moved

>  <fragmenstein_mode>  (334) 
expansion

>  <fragmenstein_error>  (334) 


$$$$
C39854-P76
     RDKit          3D

 45 46  0  0  0  0  0  0  0  0999 V2000
   14.6026   -0.4735   22.5205 C   0  0  0  0  0  0  0  0  0  0  0  0
   13.8489    0.7721   22.1855 C   0  0  0  0  0  0  0  0  0  0  0  0
   14.5596    1.8087   21.0132 S   0  0  0  0  0  0  0  0  0  0  0  0
   13.1979    2.8261   21.0053 C   0  0  0  0  0  0  0  0  0  0  0  0
   12.2402    2.4131   21.9030 C   0  0  0  0  0  0  0  0  0  0  0  0
   12.6154    1.2379   22.6460 C   0  0  0  0  0  0  0  0  0  0  0  0
   11.6886    0.5522   23.6477 C   0  0  0  0  0  0  0  0  0  0  0  0
   11.5532    1.1796   25.0546 C   0  0  0  0  0  0  0  0  0  0  0  0
   12.5244    1.3147   25.7534 O   0  0  0  0  0  0  0  0  0  0  0  0
   10.1536    1.4304   25.3316 N   0  0  0  0  0  0  0  0  0  0  0  0
    9.7969    2.8412   24.9504 C   0  0  0  0  0  0  0  0  0  0  0  0
    9.4414    1.8410   26.6441 C   0  0  0  0  0  0  0  0  0  0  0  0
    9.1842    0.5914   27.5955 C   0  0  0  0  0  0  0  0  0  0  0  0
    7.7580    0.0099   27.7592 N   0  0  0  0  0  0  0  0  0  0  0  0
    8.1316   -0.6903   26.4966 C   0  0  0  0  0  0  0  0  0  0  0  0
    6.4605    0.6369   27.6177 C   0  0  0  0  0  0  0  0  0  0  0  0
    6.1635    1.7463   27.2490 O   0  0  0  0  0  0  0  0  0  0  0  0
    5.3198   -0.3821   27.9684 C   0  0  0  0  0  0  0  0  0  0  0  0
    4.3073    0.1906   28.8011 O   0  0  0  0  0  0  0  0  0  0  0  0
    3.0798   -0.3720   28.7203 C   0  0  0  0  0  0  0  0  0  0  0  0
    2.4909   -1.2459   27.7873 C   0  0  0  0  0  0  0  0  0  0  0  0
    1.2045   -1.3898   28.2427 C   0  0  0  0  0  0  0  0  0  0  0  0
    1.0348   -0.6628   29.3747 O   0  0  0  0  0  0  0  0  0  0  0  0
    2.2216   -0.0139   29.6813 N   0  0  0  0  0  0  0  0  0  0  0  0
   14.1519   -1.0045   23.3638 H   0  0  0  0  0  0  0  0  0  0  0  0
   14.6263   -1.1553   21.6637 H   0  0  0  0  0  0  0  0  0  0  0  0
   15.6350   -0.2399   22.8040 H   0  0  0  0  0  0  0  0  0  0  0  0
   13.1615    3.6828   20.3469 H   0  0  0  0  0  0  0  0  0  0  0  0
   11.3014    2.9379   22.0174 H   0  0  0  0  0  0  0  0  0  0  0  0
   12.0148   -0.4770   23.8308 H   0  0  0  0  0  0  0  0  0  0  0  0
   10.7004    0.4766   23.1817 H   0  0  0  0  0  0  0  0  0  0  0  0
   10.3054    3.6199   25.5394 H   0  0  0  0  0  0  0  0  0  0  0  0
   10.2058    2.9861   23.9440 H   0  0  0  0  0  0  0  0  0  0  0  0
    8.7244    3.0158   24.7981 H   0  0  0  0  0  0  0  0  0  0  0  0
   10.1309    2.4815   27.2178 H   0  0  0  0  0  0  0  0  0  0  0  0
    8.4553    2.3092   26.5314 H   0  0  0  0  0  0  0  0  0  0  0  0
   10.0058   -0.1440   27.6027 H   0  0  0  0  0  0  0  0  0  0  0  0
    9.2857    1.0420   28.5967 H   0  0  0  0  0  0  0  0  0  0  0  0
    8.1821   -0.0382   25.6236 H   0  0  0  0  0  0  0  0  0  0  0  0
    8.9626   -1.4054   26.5814 H   0  0  0  0  0  0  0  0  0  0  0  0
    7.2797   -1.3469   26.2702 H   0  0  0  0  0  0  0  0  0  0  0  0
    4.9245   -0.7038   26.9978 H   0  0  0  0  0  0  0  0  0  0  0  0
    5.7432   -1.2500   28.4862 H   0  0  0  0  0  0  0  0  0  0  0  0
    2.9045   -1.6899   26.8936 H   0  0  0  0  0  0  0  0  0  0  0  0
    0.3371   -1.9301   27.8944 H   0  0  0  0  0  0  0  0  0  0  0  0
  1  2  1  0
  2  3  1  0
  3  4  1  0
  4  5  2  0
  5  6  1  0
  6  7  1  0
  7  8  1  0
  8  9  2  0
  8 10  1  0
 10 11  1  0
 10 12  1  0
 12 13  1  0
 13 14  1  0
 14 15  1  0
 14 16  1  0
 16 17  2  0
 16 18  1  0
 18 19  1  0
 19 20  1  0
 20 21  1  0
 21 22  2  0
 22 23  1  0
 23 24  1  0
  6  2  2  0
 24 20  2  0
  1 25  1  0
  1 26  1  0
  1 27  1  0
  4 28  1  0
  5 29  1  0
  7 30  1  0
  7 31  1  0
 11 32  1  0
 11 33  1  0
 11 34  1  0
 12 35  1  0
 12 36  1  0
 13 37  1  0
 13 38  1  0
 15 39  1  0
 15 40  1  0
 15 41  1  0
 18 42  1  0
 18 43  1  0
 21 44  1  0
 22 45  1  0
M  END
>  <Energy>  (335) 
186.60972361780395

>  <compound_id>  (335) 
39854

>  <target_id>  (335) 
1

>  <reference_id>  (335) 
76

>  <inspiration_ids>  (335) 
[76, 59]

>  <energy_score>  (335) 
18.724197937762312

>  <distance_score>  (335) 
9.783742703068032

>  <path>  (335) 
/opt/xchem-fragalysis-2/maxwin/BulkDock/SCRATCH/511017/C39854-P76/C39854-P76.minimised.mol

>  <scratch_subdir>  (335) 
/opt/xchem-fragalysis-2/maxwin/BulkDock/SCRATCH/511017/C39854-P76

>  <fragmenstein_runtime>  (335) 
23.54177212715149

>  <fragmenstein_outcome>  (335) 
too moved

>  <fragmenstein_mode>  (335) 
expansion

>  <fragmenstein_error>  (335) 


$$$$
C39854-P59
     RDKit          3D

 45 46  0  0  0  0  0  0  0  0999 V2000
    8.0836   -0.3306   19.2109 C   0  0  0  0  0  0  0  0  0  0  0  0
    8.6599   -1.8595   19.1392 C   0  0  0  0  0  0  0  0  0  0  0  0
   10.2471   -1.9176   17.1290 S   0  0  0  0  0  0  0  0  0  0  0  0
   10.9172   -4.1657   17.7156 C   0  0  0  0  0  0  0  0  0  0  0  0
   10.1017   -5.2224   19.1059 C   0  0  0  0  0  0  0  0  0  0  0  0
    8.8121   -3.7377   19.9884 C   0  0  0  0  0  0  0  0  0  0  0  0
    7.6223   -3.9070   21.4477 C   0  0  0  0  0  0  0  0  0  0  0  0
    6.0858   -3.1601   22.3371 C   0  0  0  0  0  0  0  0  0  0  0  0
    5.2471   -2.9038   21.5234 O   0  0  0  0  0  0  0  0  0  0  0  0
    5.8989   -2.8743   24.0262 N   0  0  0  0  0  0  0  0  0  0  0  0
    5.2738   -4.1786   24.7729 C   0  0  0  0  0  0  0  0  0  0  0  0
    4.7993   -2.1886   24.7988 C   0  0  0  0  0  0  0  0  0  0  0  0
    5.3584   -1.4813   26.1075 C   0  0  0  0  0  0  0  0  0  0  0  0
    4.4783   -1.4111   27.3652 N   0  0  0  0  0  0  0  0  0  0  0  0
    3.9303   -0.2055   26.6499 C   0  0  0  0  0  0  0  0  0  0  0  0
    3.4008   -2.2597   27.8074 C   0  0  0  0  0  0  0  0  0  0  0  0
    2.8580   -3.1860   27.2588 O   0  0  0  0  0  0  0  0  0  0  0  0
    2.9848   -1.8516   29.2508 C   0  0  0  0  0  0  0  0  0  0  0  0
    1.6770   -2.2716   29.6462 O   0  0  0  0  0  0  0  0  0  0  0  0
    0.6883   -1.4977   29.1526 C   0  0  0  0  0  0  0  0  0  0  0  0
   -0.5519   -1.9397   28.6764 C   0  0  0  0  0  0  0  0  0  0  0  0
   -1.1925   -0.7788   28.3296 C   0  0  0  0  0  0  0  0  0  0  0  0
   -0.4064    0.2873   28.6319 O   0  0  0  0  0  0  0  0  0  0  0  0
    0.7918   -0.1669   29.1731 N   0  0  0  0  0  0  0  0  0  0  0  0
    8.1228    0.1495   18.2229 H   0  0  0  0  0  0  0  0  0  0  0  0
    7.0680   -0.3127   19.5322 H   0  0  0  0  0  0  0  0  0  0  0  0
    8.7033    0.2795   19.8438 H   0  0  0  0  0  0  0  0  0  0  0  0
   11.8909   -4.3261   17.2683 H   0  0  0  0  0  0  0  0  0  0  0  0
   10.7350   -5.6214   19.9282 H   0  0  0  0  0  0  0  0  0  0  0  0
    7.7763   -2.8609   21.4150 H   0  0  0  0  0  0  0  0  0  0  0  0
    7.0763   -4.2407   20.5297 H   0  0  0  0  0  0  0  0  0  0  0  0
    5.6687   -4.1611   25.8020 H   0  0  0  0  0  0  0  0  0  0  0  0
    4.2084   -4.4215   24.8678 H   0  0  0  0  0  0  0  0  0  0  0  0
    5.7881   -5.0500   24.3400 H   0  0  0  0  0  0  0  0  0  0  0  0
    4.4680   -1.3998   24.1192 H   0  0  0  0  0  0  0  0  0  0  0  0
    3.9123   -2.7347   25.0464 H   0  0  0  0  0  0  0  0  0  0  0  0
    5.9688   -0.5876   25.8949 H   0  0  0  0  0  0  0  0  0  0  0  0
    6.1368   -2.1643   26.4804 H   0  0  0  0  0  0  0  0  0  0  0  0
    3.1279    0.1811   27.2948 H   0  0  0  0  0  0  0  0  0  0  0  0
    4.6381    0.6357   26.6112 H   0  0  0  0  0  0  0  0  0  0  0  0
    3.4115   -0.3836   25.7060 H   0  0  0  0  0  0  0  0  0  0  0  0
    3.6836   -2.3774   29.9135 H   0  0  0  0  0  0  0  0  0  0  0  0
    3.1505   -0.7833   29.4324 H   0  0  0  0  0  0  0  0  0  0  0  0
   -0.9138   -2.9490   28.5599 H   0  0  0  0  0  0  0  0  0  0  0  0
   -2.1480   -0.5495   27.8818 H   0  0  0  0  0  0  0  0  0  0  0  0
  1  2  1  0
  2  3  1  0
  3  4  1  0
  4  5  2  0
  5  6  1  0
  6  7  1  0
  7  8  1  0
  8  9  2  0
  8 10  1  0
 10 11  1  0
 10 12  1  0
 12 13  1  0
 13 14  1  0
 14 15  1  0
 14 16  1  0
 16 17  2  0
 16 18  1  0
 18 19  1  0
 19 20  1  0
 20 21  1  0
 21 22  2  0
 22 23  1  0
 23 24  1  0
  6  2  2  0
 24 20  2  0
  1 25  1  0
  1 26  1  0
  1 27  1  0
  4 28  1  0
  5 29  1  0
  7 30  1  0
  7 31  1  0
 11 32  1  0
 11 33  1  0
 11 34  1  0
 12 35  1  0
 12 36  1  0
 13 37  1  0
 13 38  1  0
 15 39  1  0
 15 40  1  0
 15 41  1  0
 18 42  1  0
 18 43  1  0
 21 44  1  0
 22 45  1  0
M  END
>  <Energy>  (336) 
1085.1570922032381

>  <compound_id>  (336) 
39854

>  <target_id>  (336) 
1

>  <reference_id>  (336) 
59

>  <inspiration_ids>  (336) 
[76, 59]

>  <energy_score>  (336) 
917.2715665231931

>  <distance_score>  (336) 
7.80607867428363

>  <path>  (336) 
/opt/xchem-fragalysis-2/maxwin/BulkDock/SCRATCH/511017/C39854-P59/C39854-P59.minimised.mol

>  <scratch_subdir>  (336) 
/opt/xchem-fragalysis-2/maxwin/BulkDock/SCRATCH/511017/C39854-P59

>  <fragmenstein_runtime>  (336) 
14.085827350616455

>  <fragmenstein_outcome>  (336) 
too moved

>  <fragmenstein_mode>  (336) 
expansion

>  <fragmenstein_error>  (336) 


$$$$
C39856-P76
     RDKit          3D

 48 49  0  0  0  0  0  0  0  0999 V2000
    6.7089   -1.0088   26.5351 C   0  0  0  0  0  0  0  0  0  0  0  0
    5.2722   -0.7232   26.2399 C   0  0  0  0  0  0  0  0  0  0  0  0
    4.4352    0.0159   27.5729 S   0  0  0  0  0  0  0  0  0  0  0  0
    2.9452   -0.3665   26.8939 C   0  0  0  0  0  0  0  0  0  0  0  0
    3.1372   -0.8821   25.6395 C   0  0  0  0  0  0  0  0  0  0  0  0
    4.4604   -0.9178   25.0958 C   0  0  0  0  0  0  0  0  0  0  0  0
    4.6631   -1.5778   23.5018 C   0  0  0  0  0  0  0  0  0  0  0  0
    5.5482   -1.5834   21.7950 C   0  0  0  0  0  0  0  0  0  0  0  0
    5.6522   -2.6964   21.4039 O   0  0  0  0  0  0  0  0  0  0  0  0
    6.2054   -0.2509   21.0440 N   0  0  0  0  0  0  0  0  0  0  0  0
    7.2899   -0.1081   19.6271 C   0  0  0  0  0  0  0  0  0  0  0  0
    7.5334    0.0010   17.8727 C   0  0  0  0  0  0  0  0  0  0  0  0
    7.4003   -0.4831   16.0465 C   0  0  0  0  0  0  0  0  0  0  0  0
    8.2357   -1.7049   15.3650 N   0  0  0  0  0  0  0  0  0  0  0  0
    9.7296   -1.5785   15.0851 C   0  0  0  0  0  0  0  0  0  0  0  0
   10.9241   -2.4785   14.7988 C   0  0  0  0  0  0  0  0  0  0  0  0
   11.4843   -3.4703   15.6476 C   0  0  0  0  0  0  0  0  0  0  0  0
   12.8296   -3.2238   15.6321 C   0  0  0  0  0  0  0  0  0  0  0  0
   13.1023   -2.3287   14.6620 O   0  0  0  0  0  0  0  0  0  0  0  0
   11.9247   -1.9141   14.0883 N   0  0  0  0  0  0  0  0  0  0  0  0
    7.5045    0.7411   14.9479 C   0  0  0  0  0  0  0  0  0  0  0  0
    7.8086    2.1676   15.4214 C   0  0  0  0  0  0  0  0  0  0  0  0
    6.2836    0.7512   14.0164 C   0  0  0  0  0  0  0  0  0  0  0  0
    7.1786   -1.6419   25.7828 H   0  0  0  0  0  0  0  0  0  0  0  0
    6.8195   -1.5297   27.4935 H   0  0  0  0  0  0  0  0  0  0  0  0
    7.2832   -0.0769   26.5903 H   0  0  0  0  0  0  0  0  0  0  0  0
    2.0135   -0.2282   27.4222 H   0  0  0  0  0  0  0  0  0  0  0  0
    2.3491   -1.2638   25.0505 H   0  0  0  0  0  0  0  0  0  0  0  0
    3.7594   -2.1940   23.4393 H   0  0  0  0  0  0  0  0  0  0  0  0
    5.4669   -2.1803   23.9518 H   0  0  0  0  0  0  0  0  0  0  0  0
    5.9035    0.5717   21.5240 H   0  0  0  0  0  0  0  0  0  0  0  0
    8.1527   -0.6522   19.9411 H   0  0  0  0  0  0  0  0  0  0  0  0
    7.6018    0.9266   19.8536 H   0  0  0  0  0  0  0  0  0  0  0  0
    6.5376   -0.4635   17.9268 H   0  0  0  0  0  0  0  0  0  0  0  0
    7.8570    1.0446   17.8051 H   0  0  0  0  0  0  0  0  0  0  0  0
    6.3595   -0.8015   15.9513 H   0  0  0  0  0  0  0  0  0  0  0  0
    7.8357   -1.8318   14.4247 H   0  0  0  0  0  0  0  0  0  0  0  0
   10.0298   -1.6226   16.1068 H   0  0  0  0  0  0  0  0  0  0  0  0
    9.9185   -0.6349   14.5763 H   0  0  0  0  0  0  0  0  0  0  0  0
   11.0218   -4.1215   16.3599 H   0  0  0  0  0  0  0  0  0  0  0  0
   13.6776   -3.6094   16.1781 H   0  0  0  0  0  0  0  0  0  0  0  0
    8.3287    0.5120   14.2656 H   0  0  0  0  0  0  0  0  0  0  0  0
    6.9553    2.6209   15.9313 H   0  0  0  0  0  0  0  0  0  0  0  0
    8.6763    2.2304   16.0787 H   0  0  0  0  0  0  0  0  0  0  0  0
    8.0252    2.8059   14.5561 H   0  0  0  0  0  0  0  0  0  0  0  0
    6.0437   -0.2561   13.6614 H   0  0  0  0  0  0  0  0  0  0  0  0
    6.4816    1.3715   13.1347 H   0  0  0  0  0  0  0  0  0  0  0  0
    5.4060    1.1694   14.5132 H   0  0  0  0  0  0  0  0  0  0  0  0
  1  2  1  0
  2  3  1  0
  3  4  1  0
  4  5  2  0
  5  6  1  0
  6  7  1  0
  7  8  1  0
  8  9  2  0
  8 10  1  0
 10 11  1  0
 11 12  1  0
 12 13  1  0
 13 14  1  0
 14 15  1  0
 15 16  1  0
 16 17  1  0
 17 18  2  0
 18 19  1  0
 19 20  1  0
 13 21  1  0
 21 22  1  0
 21 23  1  0
  6  2  2  0
 20 16  2  0
  1 24  1  0
  1 25  1  0
  1 26  1  0
  4 27  1  0
  5 28  1  0
  7 29  1  0
  7 30  1  0
 10 31  1  0
 11 32  1  0
 11 33  1  0
 12 34  1  0
 12 35  1  0
 13 36  1  0
 14 37  1  0
 15 38  1  0
 15 39  1  0
 17 40  1  0
 18 41  1  0
 21 42  1  0
 22 43  1  0
 22 44  1  0
 22 45  1  0
 23 46  1  0
 23 47  1  0
 23 48  1  0
M  END
>  <Energy>  (337) 
444.04992192841559

>  <compound_id>  (337) 
39856

>  <target_id>  (337) 
1

>  <reference_id>  (337) 
76

>  <inspiration_ids>  (337) 
[76, 59]

>  <energy_score>  (337) 
355.19806878590424

>  <distance_score>  (337) 
6.150485187659903

>  <path>  (337) 
/opt/xchem-fragalysis-2/maxwin/BulkDock/SCRATCH/511017/C39856-P76/C39856-P76.minimised.mol

>  <scratch_subdir>  (337) 
/opt/xchem-fragalysis-2/maxwin/BulkDock/SCRATCH/511017/C39856-P76

>  <fragmenstein_runtime>  (337) 
15.130162477493286

>  <fragmenstein_outcome>  (337) 
too moved

>  <fragmenstein_mode>  (337) 
expansion

>  <fragmenstein_error>  (337) 


$$$$
C39856-P59
     RDKit          3D

 48 49  0  0  0  0  0  0  0  0999 V2000
    4.1692    1.6087   24.6443 C   0  0  0  0  0  0  0  0  0  0  0  0
    4.3744    0.2524   25.2256 C   0  0  0  0  0  0  0  0  0  0  0  0
    4.2150    0.1855   26.9486 S   0  0  0  0  0  0  0  0  0  0  0  0
    4.6024   -1.4599   27.0014 C   0  0  0  0  0  0  0  0  0  0  0  0
    4.8192   -1.9637   25.7427 C   0  0  0  0  0  0  0  0  0  0  0  0
    4.6348   -0.9971   24.6560 C   0  0  0  0  0  0  0  0  0  0  0  0
    4.6777   -1.5965   23.1129 C   0  0  0  0  0  0  0  0  0  0  0  0
    5.1266   -0.6200   21.5811 C   0  0  0  0  0  0  0  0  0  0  0  0
    4.4333    0.3752   21.4282 O   0  0  0  0  0  0  0  0  0  0  0  0
    6.5479   -1.0214   20.5297 N   0  0  0  0  0  0  0  0  0  0  0  0
    7.2861   -0.1390   19.1944 C   0  0  0  0  0  0  0  0  0  0  0  0
    8.0067    1.2511   18.8549 C   0  0  0  0  0  0  0  0  0  0  0  0
    8.6611    1.3957   17.2863 C   0  0  0  0  0  0  0  0  0  0  0  0
    9.4988    0.2143   16.9035 N   0  0  0  0  0  0  0  0  0  0  0  0
   10.2307    0.2783   15.6057 C   0  0  0  0  0  0  0  0  0  0  0  0
   11.0231   -0.9753   15.2938 C   0  0  0  0  0  0  0  0  0  0  0  0
   11.8154   -1.2161   14.1423 C   0  0  0  0  0  0  0  0  0  0  0  0
   12.3669   -2.4517   14.3527 C   0  0  0  0  0  0  0  0  0  0  0  0
   11.9633   -2.9242   15.5540 O   0  0  0  0  0  0  0  0  0  0  0  0
   11.1381   -1.9959   16.1527 N   0  0  0  0  0  0  0  0  0  0  0  0
    9.1398    2.8969   17.0656 C   0  0  0  0  0  0  0  0  0  0  0  0
    7.9255    3.8408   16.9833 C   0  0  0  0  0  0  0  0  0  0  0  0
    9.9600    3.2550   15.8210 C   0  0  0  0  0  0  0  0  0  0  0  0
    3.1141    1.8917   24.6341 H   0  0  0  0  0  0  0  0  0  0  0  0
    4.7108    2.3685   25.2202 H   0  0  0  0  0  0  0  0  0  0  0  0
    4.5535    1.6719   23.6319 H   0  0  0  0  0  0  0  0  0  0  0  0
    4.6582   -1.9859   27.9438 H   0  0  0  0  0  0  0  0  0  0  0  0
    5.0724   -3.0044   25.5740 H   0  0  0  0  0  0  0  0  0  0  0  0
    3.6673   -2.0087   23.0631 H   0  0  0  0  0  0  0  0  0  0  0  0
    5.4032   -2.3916   23.2624 H   0  0  0  0  0  0  0  0  0  0  0  0
    6.8986   -1.9140   20.7853 H   0  0  0  0  0  0  0  0  0  0  0  0
    8.1925   -0.6957   19.2120 H   0  0  0  0  0  0  0  0  0  0  0  0
    6.7013   -0.3626   18.3106 H   0  0  0  0  0  0  0  0  0  0  0  0
    7.3324    2.0866   18.9341 H   0  0  0  0  0  0  0  0  0  0  0  0
    8.7370    1.4896   19.6204 H   0  0  0  0  0  0  0  0  0  0  0  0
    7.8389    1.2954   16.5793 H   0  0  0  0  0  0  0  0  0  0  0  0
    8.8180   -0.5216   16.7050 H   0  0  0  0  0  0  0  0  0  0  0  0
   10.9892    1.0536   15.6364 H   0  0  0  0  0  0  0  0  0  0  0  0
    9.5294    0.4699   14.7866 H   0  0  0  0  0  0  0  0  0  0  0  0
   11.9462   -0.5789   13.2821 H   0  0  0  0  0  0  0  0  0  0  0  0
   13.0284   -3.0964   13.7950 H   0  0  0  0  0  0  0  0  0  0  0  0
    9.6772    3.2143   17.9582 H   0  0  0  0  0  0  0  0  0  0  0  0
    7.3207    3.8230   17.8914 H   0  0  0  0  0  0  0  0  0  0  0  0
    8.2382    4.8844   16.8592 H   0  0  0  0  0  0  0  0  0  0  0  0
    7.2780    3.5835   16.1379 H   0  0  0  0  0  0  0  0  0  0  0  0
   11.0033    2.9542   15.9069 H   0  0  0  0  0  0  0  0  0  0  0  0
   10.0066    4.3415   15.6751 H   0  0  0  0  0  0  0  0  0  0  0  0
    9.5199    2.8345   14.9118 H   0  0  0  0  0  0  0  0  0  0  0  0
  1  2  1  0
  2  3  1  0
  3  4  1  0
  4  5  2  0
  5  6  1  0
  6  7  1  0
  7  8  1  0
  8  9  2  0
  8 10  1  0
 10 11  1  0
 11 12  1  0
 12 13  1  0
 13 14  1  0
 14 15  1  0
 15 16  1  0
 16 17  1  0
 17 18  2  0
 18 19  1  0
 19 20  1  0
 13 21  1  0
 21 22  1  0
 21 23  1  0
  6  2  2  0
 20 16  2  0
  1 24  1  0
  1 25  1  0
  1 26  1  0
  4 27  1  0
  5 28  1  0
  7 29  1  0
  7 30  1  0
 10 31  1  0
 11 32  1  0
 11 33  1  0
 12 34  1  0
 12 35  1  0
 13 36  1  0
 14 37  1  0
 15 38  1  0
 15 39  1  0
 17 40  1  0
 18 41  1  0
 21 42  1  0
 22 43  1  0
 22 44  1  0
 22 45  1  0
 23 46  1  0
 23 47  1  0
 23 48  1  0
M  END
>  <Energy>  (338) 
226.12234726915602

>  <compound_id>  (338) 
39856

>  <target_id>  (338) 
1

>  <reference_id>  (338) 
59

>  <inspiration_ids>  (338) 
[76, 59]

>  <energy_score>  (338) 
137.27049412664223

>  <distance_score>  (338) 
6.091696091760475

>  <path>  (338) 
/opt/xchem-fragalysis-2/maxwin/BulkDock/SCRATCH/511017/C39856-P59/C39856-P59.minimised.mol

>  <scratch_subdir>  (338) 
/opt/xchem-fragalysis-2/maxwin/BulkDock/SCRATCH/511017/C39856-P59

>  <fragmenstein_runtime>  (338) 
12.95286774635315

>  <fragmenstein_outcome>  (338) 
too moved

>  <fragmenstein_mode>  (338) 
expansion

>  <fragmenstein_error>  (338) 


$$$$
C39859-P76
     RDKit          3D

 45 46  0  0  0  0  0  0  0  0999 V2000
    7.3279   -9.1526   22.4105 C   0  0  0  0  0  0  0  0  0  0  0  0
    7.1066   -7.6974   22.4974 C   0  0  0  0  0  0  0  0  0  0  0  0
    7.3175   -6.7941   21.5324 C   0  0  0  0  0  0  0  0  0  0  0  0
    7.5271   -5.4218   22.1462 C   0  0  0  0  0  0  0  0  0  0  0  0
    6.8756   -4.9381   23.3111 C   0  0  0  0  0  0  0  0  0  0  0  0
    6.6221   -3.3996   24.3314 C   0  0  0  0  0  0  0  0  0  0  0  0
    7.6367   -3.1547   24.9520 O   0  0  0  0  0  0  0  0  0  0  0  0
    5.0829   -2.3958   24.6068 N   0  0  0  0  0  0  0  0  0  0  0  0
    4.7423   -1.2256   25.6706 C   0  0  0  0  0  0  0  0  0  0  0  0
    3.1638   -1.1435   26.0135 C   0  0  0  0  0  0  0  0  0  0  0  0
    2.5343   -1.8305   27.1862 N   0  0  0  0  0  0  0  0  0  0  0  0
    1.4470   -1.0012   27.7609 C   0  0  0  0  0  0  0  0  0  0  0  0
    0.7803   -1.6323   28.9411 C   0  0  0  0  0  0  0  0  0  0  0  0
    1.1905   -2.7265   29.7362 C   0  0  0  0  0  0  0  0  0  0  0  0
    0.2206   -2.8296   30.6969 C   0  0  0  0  0  0  0  0  0  0  0  0
   -0.7148   -1.8699   30.5041 O   0  0  0  0  0  0  0  0  0  0  0  0
   -0.3695   -1.1104   29.4029 N   0  0  0  0  0  0  0  0  0  0  0  0
    5.4616   -1.2386   27.0580 C   0  0  0  0  0  0  0  0  0  0  0  0
    5.1084   -0.1083   28.0760 C   0  0  0  0  0  0  0  0  0  0  0  0
    5.9177   -0.3185   29.3609 C   0  0  0  0  0  0  0  0  0  0  0  0
    5.4064    1.2787   27.5069 C   0  0  0  0  0  0  0  0  0  0  0  0
    6.3572   -6.9298   23.7723 S   0  0  0  0  0  0  0  0  0  0  0  0
    8.0364   -9.4009   21.6127 H   0  0  0  0  0  0  0  0  0  0  0  0
    6.3882   -9.6742   22.2003 H   0  0  0  0  0  0  0  0  0  0  0  0
    7.7373   -9.5465   23.3467 H   0  0  0  0  0  0  0  0  0  0  0  0
    7.6513   -7.0408   20.5310 H   0  0  0  0  0  0  0  0  0  0  0  0
    7.8753   -4.7129   21.4030 H   0  0  0  0  0  0  0  0  0  0  0  0
    4.3437   -2.7900   24.0831 H   0  0  0  0  0  0  0  0  0  0  0  0
    4.8301   -0.2741   25.1723 H   0  0  0  0  0  0  0  0  0  0  0  0
    2.9603   -0.0687   26.1165 H   0  0  0  0  0  0  0  0  0  0  0  0
    2.6676   -1.4509   25.1022 H   0  0  0  0  0  0  0  0  0  0  0  0
    2.0987   -2.6700   26.8005 H   0  0  0  0  0  0  0  0  0  0  0  0
    0.6864   -0.7928   27.0080 H   0  0  0  0  0  0  0  0  0  0  0  0
    1.8509   -0.0362   28.0893 H   0  0  0  0  0  0  0  0  0  0  0  0
    2.0786   -3.3305   29.6245 H   0  0  0  0  0  0  0  0  0  0  0  0
    0.0586   -3.4798   31.5432 H   0  0  0  0  0  0  0  0  0  0  0  0
    6.5432   -1.2198   26.8711 H   0  0  0  0  0  0  0  0  0  0  0  0
    5.2513   -2.1832   27.5725 H   0  0  0  0  0  0  0  0  0  0  0  0
    4.0578   -0.1445   28.3597 H   0  0  0  0  0  0  0  0  0  0  0  0
    5.6944   -1.2943   29.8051 H   0  0  0  0  0  0  0  0  0  0  0  0
    5.6743    0.4487   30.1038 H   0  0  0  0  0  0  0  0  0  0  0  0
    6.9946   -0.2715   29.1663 H   0  0  0  0  0  0  0  0  0  0  0  0
    6.4455    1.3549   27.1695 H   0  0  0  0  0  0  0  0  0  0  0  0
    4.7545    1.5090   26.6604 H   0  0  0  0  0  0  0  0  0  0  0  0
    5.2400    2.0532   28.2633 H   0  0  0  0  0  0  0  0  0  0  0  0
  1  2  1  0
  2  3  2  0
  3  4  1  0
  4  5  2  0
  5  6  1  0
  6  7  2  0
  6  8  1  0
  8  9  1  0
  9 10  1  0
 10 11  1  0
 11 12  1  0
 12 13  1  0
 13 14  1  0
 14 15  2  0
 15 16  1  0
 16 17  1  0
  9 18  1  0
 18 19  1  0
 19 20  1  0
 19 21  1  0
  5 22  1  0
 22  2  1  0
 17 13  2  0
  1 23  1  0
  1 24  1  0
  1 25  1  0
  3 26  1  0
  4 27  1  0
  8 28  1  0
  9 29  1  0
 10 30  1  0
 10 31  1  0
 11 32  1  0
 12 33  1  0
 12 34  1  0
 14 35  1  0
 15 36  1  0
 18 37  1  0
 18 38  1  0
 19 39  1  0
 20 40  1  0
 20 41  1  0
 20 42  1  0
 21 43  1  0
 21 44  1  0
 21 45  1  0
M  END
>  <Energy>  (339) 
246.80645145708849

>  <compound_id>  (339) 
39859

>  <target_id>  (339) 
1

>  <reference_id>  (339) 
76

>  <inspiration_ids>  (339) 
[76, 59]

>  <energy_score>  (339) 
172.92821195440663

>  <distance_score>  (339) 
9.976200398119621

>  <path>  (339) 
/opt/xchem-fragalysis-2/maxwin/BulkDock/SCRATCH/511017/C39859-P76/C39859-P76.minimised.mol

>  <scratch_subdir>  (339) 
/opt/xchem-fragalysis-2/maxwin/BulkDock/SCRATCH/511017/C39859-P76

>  <fragmenstein_runtime>  (339) 
13.212347745895386

>  <fragmenstein_outcome>  (339) 
too moved

>  <fragmenstein_mode>  (339) 
expansion

>  <fragmenstein_error>  (339) 


$$$$
C39859-P59
     RDKit          3D

 45 46  0  0  0  0  0  0  0  0999 V2000
    0.3175   -3.9180   17.7203 C   0  0  0  0  0  0  0  0  0  0  0  0
    0.0858   -4.1281   19.1859 C   0  0  0  0  0  0  0  0  0  0  0  0
    0.1232   -5.3004   19.9096 C   0  0  0  0  0  0  0  0  0  0  0  0
    0.1341   -5.0476   21.3205 C   0  0  0  0  0  0  0  0  0  0  0  0
    0.3575   -3.7112   21.5965 C   0  0  0  0  0  0  0  0  0  0  0  0
    1.0321   -3.0773   22.7833 C   0  0  0  0  0  0  0  0  0  0  0  0
    2.2251   -3.0217   22.8668 O   0  0  0  0  0  0  0  0  0  0  0  0
   -0.0127   -2.6889   23.7477 N   0  0  0  0  0  0  0  0  0  0  0  0
    0.1123   -1.8906   26.0455 C   0  0  0  0  0  0  0  0  0  0  0  0
    0.8574   -2.7318   27.4956 C   0  0  0  0  0  0  0  0  0  0  0  0
    0.1647   -3.6902   28.3636 N   0  0  0  0  0  0  0  0  0  0  0  0
   -0.6956   -3.1557   29.4295 C   0  0  0  0  0  0  0  0  0  0  0  0
   -0.0044   -2.3671   30.4975 C   0  0  0  0  0  0  0  0  0  0  0  0
   -0.6081   -1.4700   31.4130 C   0  0  0  0  0  0  0  0  0  0  0  0
    0.4372   -0.9857   32.1506 C   0  0  0  0  0  0  0  0  0  0  0  0
    1.5869   -1.5737   31.7444 O   0  0  0  0  0  0  0  0  0  0  0  0
    1.3122   -2.4687   30.7267 N   0  0  0  0  0  0  0  0  0  0  0  0
   -1.3062   -1.0506   26.8213 C   0  0  0  0  0  0  0  0  0  0  0  0
   -0.8787   -0.0753   27.9548 C   0  0  0  0  0  0  0  0  0  0  0  0
   -2.0548    0.2958   28.8287 C   0  0  0  0  0  0  0  0  0  0  0  0
   -0.2476    1.2178   27.4214 C   0  0  0  0  0  0  0  0  0  0  0  0
   -0.2944   -2.8253   20.2599 S   0  0  0  0  0  0  0  0  0  0  0  0
   -0.4717   -4.4150   17.1466 H   0  0  0  0  0  0  0  0  0  0  0  0
    1.2786   -4.3481   17.4209 H   0  0  0  0  0  0  0  0  0  0  0  0
    0.3134   -2.8577   17.4486 H   0  0  0  0  0  0  0  0  0  0  0  0
    0.2051   -6.2848   19.4651 H   0  0  0  0  0  0  0  0  0  0  0  0
    0.1889   -5.8176   22.0733 H   0  0  0  0  0  0  0  0  0  0  0  0
   -0.9412   -2.7959   23.3035 H   0  0  0  0  0  0  0  0  0  0  0  0
    0.8294   -0.9525   26.2797 H   0  0  0  0  0  0  0  0  0  0  0  0
    1.2477   -1.9099   28.1067 H   0  0  0  0  0  0  0  0  0  0  0  0
    1.7977   -3.2105   27.1794 H   0  0  0  0  0  0  0  0  0  0  0  0
    0.9051   -4.1933   28.8641 H   0  0  0  0  0  0  0  0  0  0  0  0
   -1.5542   -2.6197   29.0337 H   0  0  0  0  0  0  0  0  0  0  0  0
   -1.1027   -4.0262   29.9469 H   0  0  0  0  0  0  0  0  0  0  0  0
   -1.6489   -1.2002   31.5001 H   0  0  0  0  0  0  0  0  0  0  0  0
    0.5364   -0.2728   32.9555 H   0  0  0  0  0  0  0  0  0  0  0  0
   -1.9875   -1.8241   27.1745 H   0  0  0  0  0  0  0  0  0  0  0  0
   -1.8440   -0.4395   26.0957 H   0  0  0  0  0  0  0  0  0  0  0  0
   -0.1375   -0.5391   28.5969 H   0  0  0  0  0  0  0  0  0  0  0  0
   -2.6459   -0.5808   29.0970 H   0  0  0  0  0  0  0  0  0  0  0  0
   -2.6852    1.0350   28.3289 H   0  0  0  0  0  0  0  0  0  0  0  0
   -1.6905    0.7314   29.7604 H   0  0  0  0  0  0  0  0  0  0  0  0
   -0.8951    1.7040   26.6840 H   0  0  0  0  0  0  0  0  0  0  0  0
   -0.0779    1.9299   28.2373 H   0  0  0  0  0  0  0  0  0  0  0  0
    0.7245    1.0361   26.9586 H   0  0  0  0  0  0  0  0  0  0  0  0
  1  2  1  0
  2  3  2  0
  3  4  1  0
  4  5  2  0
  5  6  1  0
  6  7  2  0
  6  8  1  0
  8  9  1  0
  9 10  1  0
 10 11  1  0
 11 12  1  0
 12 13  1  0
 13 14  1  0
 14 15  2  0
 15 16  1  0
 16 17  1  0
  9 18  1  0
 18 19  1  0
 19 20  1  0
 19 21  1  0
  5 22  1  0
 22  2  1  0
 17 13  2  0
  1 23  1  0
  1 24  1  0
  1 25  1  0
  3 26  1  0
  4 27  1  0
  8 28  1  0
  9 29  1  0
 10 30  1  0
 10 31  1  0
 11 32  1  0
 12 33  1  0
 12 34  1  0
 14 35  1  0
 15 36  1  0
 18 37  1  0
 18 38  1  0
 19 39  1  0
 20 40  1  0
 20 41  1  0
 20 42  1  0
 21 43  1  0
 21 44  1  0
 21 45  1  0
M  END
>  <Energy>  (340) 
606.73299925947038

>  <compound_id>  (340) 
39859

>  <target_id>  (340) 
1

>  <reference_id>  (340) 
59

>  <inspiration_ids>  (340) 
[76, 59]

>  <energy_score>  (340) 
532.8547597567893

>  <distance_score>  (340) 
10.466888008171745

>  <path>  (340) 
/opt/xchem-fragalysis-2/maxwin/BulkDock/SCRATCH/511017/C39859-P59/C39859-P59.minimised.mol

>  <scratch_subdir>  (340) 
/opt/xchem-fragalysis-2/maxwin/BulkDock/SCRATCH/511017/C39859-P59

>  <fragmenstein_runtime>  (340) 
11.275465250015259

>  <fragmenstein_outcome>  (340) 
too moved

>  <fragmenstein_mode>  (340) 
expansion

>  <fragmenstein_error>  (340) 


$$$$
C39862-P76
     RDKit          3D

 36 37  0  0  0  0  0  0  0  0999 V2000
    7.4565   -6.7260   19.7797 C   0  0  0  0  0  0  0  0  0  0  0  0
    6.9147   -5.3944   20.2132 C   0  0  0  0  0  0  0  0  0  0  0  0
    5.2701   -4.5659   19.7472 C   0  0  0  0  0  0  0  0  0  0  0  0
    3.8017   -4.9509   21.2017 C   0  0  0  0  0  0  0  0  0  0  0  0
    4.8209   -6.2621   22.6886 C   0  0  0  0  0  0  0  0  0  0  0  0
    3.5557   -6.6560   24.2806 C   0  0  0  0  0  0  0  0  0  0  0  0
    3.3998   -7.8769   24.3996 O   0  0  0  0  0  0  0  0  0  0  0  0
    2.6505   -5.1904   25.2998 N   0  0  0  0  0  0  0  0  0  0  0  0
    1.3486   -5.2187   26.8051 C   0  0  0  0  0  0  0  0  0  0  0  0
    1.3283   -3.6663   27.4289 C   0  0  0  0  0  0  0  0  0  0  0  0
    1.9494   -3.4776   28.6996 O   0  0  0  0  0  0  0  0  0  0  0  0
    1.2471   -6.2047   28.1707 C   0  0  0  0  0  0  0  0  0  0  0  0
    0.4955   -5.5613   29.2342 N   0  0  0  0  0  0  0  0  0  0  0  0
    0.7258   -5.5041   30.6412 C   0  0  0  0  0  0  0  0  0  0  0  0
    1.5526   -6.0382   31.3193 O   0  0  0  0  0  0  0  0  0  0  0  0
   -0.2003   -4.5246   31.2669 C   0  0  0  0  0  0  0  0  0  0  0  0
   -0.2746   -4.1474   32.6305 C   0  0  0  0  0  0  0  0  0  0  0  0
   -1.1989   -3.1379   32.6638 C   0  0  0  0  0  0  0  0  0  0  0  0
   -1.6695   -2.9135   31.4158 O   0  0  0  0  0  0  0  0  0  0  0  0
   -1.0553   -3.7811   30.5334 N   0  0  0  0  0  0  0  0  0  0  0  0
    7.0068   -6.3615   22.3221 S   0  0  0  0  0  0  0  0  0  0  0  0
    7.1314   -7.6544   20.2748 H   0  0  0  0  0  0  0  0  0  0  0  0
    8.5254   -6.6364   20.0188 H   0  0  0  0  0  0  0  0  0  0  0  0
    6.9948   -6.8579   18.7867 H   0  0  0  0  0  0  0  0  0  0  0  0
    4.8302   -4.9605   18.8122 H   0  0  0  0  0  0  0  0  0  0  0  0
    2.7787   -5.3579   20.6558 H   0  0  0  0  0  0  0  0  0  0  0  0
    3.0554   -4.2255   25.0468 H   0  0  0  0  0  0  0  0  0  0  0  0
    0.3489   -5.4303   26.3936 H   0  0  0  0  0  0  0  0  0  0  0  0
    1.8093   -2.9610   26.7493 H   0  0  0  0  0  0  0  0  0  0  0  0
    0.2861   -3.3653   27.5695 H   0  0  0  0  0  0  0  0  0  0  0  0
    2.8632   -3.1776   28.5368 H   0  0  0  0  0  0  0  0  0  0  0  0
    2.2098   -6.5122   28.5808 H   0  0  0  0  0  0  0  0  0  0  0  0
    0.6777   -7.1117   27.9333 H   0  0  0  0  0  0  0  0  0  0  0  0
   -0.2486   -4.9093   28.9944 H   0  0  0  0  0  0  0  0  0  0  0  0
    0.2948   -4.5469   33.4566 H   0  0  0  0  0  0  0  0  0  0  0  0
   -1.6143   -2.5184   33.4455 H   0  0  0  0  0  0  0  0  0  0  0  0
  1  2  1  0
  2  3  2  0
  3  4  1  0
  4  5  2  0
  5  6  1  0
  6  7  2  0
  6  8  1  0
  8  9  1  0
  9 10  1  0
 10 11  1  0
  9 12  1  0
 12 13  1  0
 13 14  1  0
 14 15  2  0
 14 16  1  0
 16 17  1  0
 17 18  2  0
 18 19  1  0
 19 20  1  0
  5 21  1  0
 21  2  1  0
 20 16  2  0
  1 22  1  0
  1 23  1  0
  1 24  1  0
  3 25  1  0
  4 26  1  0
  8 27  1  0
  9 28  1  0
 10 29  1  0
 10 30  1  0
 11 31  1  0
 12 32  1  0
 12 33  1  0
 13 34  1  0
 17 35  1  0
 18 36  1  0
M  END
>  <Energy>  (341) 
1122.1210106084793

>  <compound_id>  (341) 
39862

>  <target_id>  (341) 
1

>  <reference_id>  (341) 
76

>  <inspiration_ids>  (341) 
[76, 59]

>  <energy_score>  (341) 
1048.5564768525849

>  <distance_score>  (341) 
8.640784040331882

>  <path>  (341) 
/opt/xchem-fragalysis-2/maxwin/BulkDock/SCRATCH/511017/C39862-P76/C39862-P76.minimised.mol

>  <scratch_subdir>  (341) 
/opt/xchem-fragalysis-2/maxwin/BulkDock/SCRATCH/511017/C39862-P76

>  <fragmenstein_runtime>  (341) 
18.24423575401306

>  <fragmenstein_outcome>  (341) 
too moved

>  <fragmenstein_mode>  (341) 
expansion

>  <fragmenstein_error>  (341) 


$$$$
C39862-P59
     RDKit          3D

 36 37  0  0  0  0  0  0  0  0999 V2000
   11.7682   -5.0191   21.0075 C   0  0  0  0  0  0  0  0  0  0  0  0
   10.4918   -4.5991   21.7153 C   0  0  0  0  0  0  0  0  0  0  0  0
   10.5835   -4.1107   23.4700 C   0  0  0  0  0  0  0  0  0  0  0  0
    8.9208   -4.4864   24.4436 C   0  0  0  0  0  0  0  0  0  0  0  0
    7.3196   -4.7437   23.1592 C   0  0  0  0  0  0  0  0  0  0  0  0
    6.1243   -5.4628   23.9781 C   0  0  0  0  0  0  0  0  0  0  0  0
    5.7778   -6.5895   23.7490 O   0  0  0  0  0  0  0  0  0  0  0  0
    5.6321   -4.4907   24.9712 N   0  0  0  0  0  0  0  0  0  0  0  0
    4.4963   -4.5602   25.9252 C   0  0  0  0  0  0  0  0  0  0  0  0
    4.0495   -5.8631   26.6148 C   0  0  0  0  0  0  0  0  0  0  0  0
    2.8456   -5.6477   27.3903 O   0  0  0  0  0  0  0  0  0  0  0  0
    4.6769   -3.4407   26.9988 C   0  0  0  0  0  0  0  0  0  0  0  0
    3.4213   -2.9891   27.5596 N   0  0  0  0  0  0  0  0  0  0  0  0
    2.9546   -1.6770   27.8780 C   0  0  0  0  0  0  0  0  0  0  0  0
    3.4503   -0.6058   27.6909 O   0  0  0  0  0  0  0  0  0  0  0  0
    1.5992   -1.7270   28.4787 C   0  0  0  0  0  0  0  0  0  0  0  0
    0.7036   -0.6387   28.6584 C   0  0  0  0  0  0  0  0  0  0  0  0
   -0.4247   -1.2016   29.1876 C   0  0  0  0  0  0  0  0  0  0  0  0
   -0.2284   -2.5304   29.3559 O   0  0  0  0  0  0  0  0  0  0  0  0
    1.0386   -2.8732   28.9127 N   0  0  0  0  0  0  0  0  0  0  0  0
    8.1694   -4.2172   20.8970 S   0  0  0  0  0  0  0  0  0  0  0  0
   11.6485   -5.4795   20.0489 H   0  0  0  0  0  0  0  0  0  0  0  0
   12.4524   -4.1665   20.9301 H   0  0  0  0  0  0  0  0  0  0  0  0
   12.2677   -5.7611   21.6418 H   0  0  0  0  0  0  0  0  0  0  0  0
   11.5161   -4.1839   24.0241 H   0  0  0  0  0  0  0  0  0  0  0  0
    8.8608   -4.6895   25.5194 H   0  0  0  0  0  0  0  0  0  0  0  0
    6.1049   -3.5970   24.8264 H   0  0  0  0  0  0  0  0  0  0  0  0
    3.6406   -4.2338   25.3290 H   0  0  0  0  0  0  0  0  0  0  0  0
    3.8346   -6.6310   25.8649 H   0  0  0  0  0  0  0  0  0  0  0  0
    4.8294   -6.2394   27.2843 H   0  0  0  0  0  0  0  0  0  0  0  0
    2.5432   -6.5331   27.6674 H   0  0  0  0  0  0  0  0  0  0  0  0
    5.1658   -2.5602   26.5659 H   0  0  0  0  0  0  0  0  0  0  0  0
    5.3084   -3.7905   27.8226 H   0  0  0  0  0  0  0  0  0  0  0  0
    2.7693   -3.6774   27.9456 H   0  0  0  0  0  0  0  0  0  0  0  0
    0.8670    0.3961   28.3960 H   0  0  0  0  0  0  0  0  0  0  0  0
   -1.3945   -0.8277   29.4792 H   0  0  0  0  0  0  0  0  0  0  0  0
  1  2  1  0
  2  3  2  0
  3  4  1  0
  4  5  2  0
  5  6  1  0
  6  7  2  0
  6  8  1  0
  8  9  1  0
  9 10  1  0
 10 11  1  0
  9 12  1  0
 12 13  1  0
 13 14  1  0
 14 15  2  0
 14 16  1  0
 16 17  1  0
 17 18  2  0
 18 19  1  0
 19 20  1  0
  5 21  1  0
 21  2  1  0
 20 16  2  0
  1 22  1  0
  1 23  1  0
  1 24  1  0
  3 25  1  0
  4 26  1  0
  8 27  1  0
  9 28  1  0
 10 29  1  0
 10 30  1  0
 11 31  1  0
 12 32  1  0
 12 33  1  0
 13 34  1  0
 17 35  1  0
 18 36  1  0
M  END
>  <Energy>  (342) 
646.43061707531774

>  <compound_id>  (342) 
39862

>  <target_id>  (342) 
1

>  <reference_id>  (342) 
59

>  <inspiration_ids>  (342) 
[76, 59]

>  <energy_score>  (342) 
572.8660833194149

>  <distance_score>  (342) 
8.984122667523755

>  <path>  (342) 
/opt/xchem-fragalysis-2/maxwin/BulkDock/SCRATCH/511017/C39862-P59/C39862-P59.minimised.mol

>  <scratch_subdir>  (342) 
/opt/xchem-fragalysis-2/maxwin/BulkDock/SCRATCH/511017/C39862-P59

>  <fragmenstein_runtime>  (342) 
16.46730399131775

>  <fragmenstein_outcome>  (342) 
too moved

>  <fragmenstein_mode>  (342) 
expansion

>  <fragmenstein_error>  (342) 


$$$$
C39869-P76
     RDKit          3D

 41 42  0  0  0  0  0  0  0  0999 V2000
   14.2556    3.4124   15.2220 C   0  0  0  0  0  0  0  0  0  0  0  0
   13.6851    3.5490   16.5913 C   0  0  0  0  0  0  0  0  0  0  0  0
   12.4058    3.9194   16.9524 C   0  0  0  0  0  0  0  0  0  0  0  0
   12.1806    3.8860   18.3750 C   0  0  0  0  0  0  0  0  0  0  0  0
   10.8721    4.1628   19.0116 C   0  0  0  0  0  0  0  0  0  0  0  0
   10.2031    5.0441   18.5652 O   0  0  0  0  0  0  0  0  0  0  0  0
   10.6098    3.2350   20.0673 N   0  0  0  0  0  0  0  0  0  0  0  0
    9.4090    3.0080   20.8675 C   0  0  0  0  0  0  0  0  0  0  0  0
    9.8828    2.7446   22.2867 C   0  0  0  0  0  0  0  0  0  0  0  0
    8.5157    1.8337   20.3286 C   0  0  0  0  0  0  0  0  0  0  0  0
    8.3448    1.9495   18.8130 C   0  0  0  0  0  0  0  0  0  0  0  0
    7.1746    1.7397   20.9852 N   0  0  0  0  0  0  0  0  0  0  0  0
    6.1130    0.3349   21.2617 C   0  0  0  0  0  0  0  0  0  0  0  0
    6.3862   -0.8167   21.0125 O   0  0  0  0  0  0  0  0  0  0  0  0
    4.4380    0.6490   22.1630 C   0  0  0  0  0  0  0  0  0  0  0  0
    4.2760    0.1776   24.1648 C   0  0  0  0  0  0  0  0  0  0  0  0
    4.2712   -1.0582   24.8521 C   0  0  0  0  0  0  0  0  0  0  0  0
    3.7267   -0.7923   26.1219 C   0  0  0  0  0  0  0  0  0  0  0  0
    3.3625    0.4809   26.2611 N   0  0  0  0  0  0  0  0  0  0  0  0
    3.5572    1.0542   25.0125 O   0  0  0  0  0  0  0  0  0  0  0  0
   13.3549    3.5527   19.0318 C   0  0  0  0  0  0  0  0  0  0  0  0
   14.6550    3.2298   17.9626 S   0  0  0  0  0  0  0  0  0  0  0  0
   13.5091    3.6617   14.4605 H   0  0  0  0  0  0  0  0  0  0  0  0
   14.5869    2.3845   15.0414 H   0  0  0  0  0  0  0  0  0  0  0  0
   15.1092    4.0847   15.0873 H   0  0  0  0  0  0  0  0  0  0  0  0
   11.6329    4.1635   16.2308 H   0  0  0  0  0  0  0  0  0  0  0  0
   11.4382    2.6784   20.2301 H   0  0  0  0  0  0  0  0  0  0  0  0
    8.8248    3.9357   20.8394 H   0  0  0  0  0  0  0  0  0  0  0  0
   10.5362    3.5519   22.6374 H   0  0  0  0  0  0  0  0  0  0  0  0
    9.0457    2.6806   22.9849 H   0  0  0  0  0  0  0  0  0  0  0  0
   10.4537    1.8111   22.3515 H   0  0  0  0  0  0  0  0  0  0  0  0
    9.0255    0.8872   20.5228 H   0  0  0  0  0  0  0  0  0  0  0  0
    9.2749    2.1345   18.2776 H   0  0  0  0  0  0  0  0  0  0  0  0
    7.6565    2.7585   18.5525 H   0  0  0  0  0  0  0  0  0  0  0  0
    7.9566    0.9997   18.4435 H   0  0  0  0  0  0  0  0  0  0  0  0
    6.6675    2.5954   21.2042 H   0  0  0  0  0  0  0  0  0  0  0  0
    4.3036   -0.4156   21.9014 H   0  0  0  0  0  0  0  0  0  0  0  0
    3.5479    1.1190   21.7276 H   0  0  0  0  0  0  0  0  0  0  0  0
    4.5779   -2.0022   24.4483 H   0  0  0  0  0  0  0  0  0  0  0  0
    3.5621   -1.4769   26.9405 H   0  0  0  0  0  0  0  0  0  0  0  0
   13.5302    3.4856   20.0969 H   0  0  0  0  0  0  0  0  0  0  0  0
  1  2  1  0
  2  3  2  0
  3  4  1  0
  4  5  1  0
  5  6  2  0
  5  7  1  0
  7  8  1  0
  8  9  1  0
  8 10  1  0
 10 11  1  0
 10 12  1  0
 12 13  1  0
 13 14  2  0
 13 15  1  0
 15 16  1  0
 16 17  2  0
 17 18  1  0
 18 19  2  0
 19 20  1  0
  4 21  2  0
 21 22  1  0
 22  2  1  0
 20 16  1  0
  1 23  1  0
  1 24  1  0
  1 25  1  0
  3 26  1  0
  7 27  1  0
  8 28  1  0
  9 29  1  0
  9 30  1  0
  9 31  1  0
 10 32  1  0
 11 33  1  0
 11 34  1  0
 11 35  1  0
 12 36  1  0
 15 37  1  0
 15 38  1  0
 17 39  1  0
 18 40  1  0
 21 41  1  0
M  END
>  <Energy>  (343) 
196.85919923892348

>  <compound_id>  (343) 
39869

>  <target_id>  (343) 
1

>  <reference_id>  (343) 
76

>  <inspiration_ids>  (343) 
[76, 59]

>  <energy_score>  (343) 
160.2447469792114

>  <distance_score>  (343) 
7.512361079134624

>  <path>  (343) 
/opt/xchem-fragalysis-2/maxwin/BulkDock/SCRATCH/511017/C39869-P76/C39869-P76.minimised.mol

>  <scratch_subdir>  (343) 
/opt/xchem-fragalysis-2/maxwin/BulkDock/SCRATCH/511017/C39869-P76

>  <fragmenstein_runtime>  (343) 
9.609954833984375

>  <fragmenstein_outcome>  (343) 
too moved

>  <fragmenstein_mode>  (343) 
expansion

>  <fragmenstein_error>  (343) 


$$$$
C39869-P59
     RDKit          3D

 41 42  0  0  0  0  0  0  0  0999 V2000
   13.6182   -0.5353   13.7122 C   0  0  0  0  0  0  0  0  0  0  0  0
   12.2714   -0.6814   14.3289 C   0  0  0  0  0  0  0  0  0  0  0  0
   11.4772    0.2894   14.9014 C   0  0  0  0  0  0  0  0  0  0  0  0
   10.2438   -0.2176   15.4719 C   0  0  0  0  0  0  0  0  0  0  0  0
    9.4377    0.5579   16.4617 C   0  0  0  0  0  0  0  0  0  0  0  0
    9.9066    1.6113   16.7668 O   0  0  0  0  0  0  0  0  0  0  0  0
    8.2715   -0.1357   16.9627 N   0  0  0  0  0  0  0  0  0  0  0  0
    7.1738    0.2517   18.2832 C   0  0  0  0  0  0  0  0  0  0  0  0
    7.6351    1.9909   18.1466 C   0  0  0  0  0  0  0  0  0  0  0  0
    6.8195   -0.5419   20.0249 C   0  0  0  0  0  0  0  0  0  0  0  0
    8.4295    0.4559   19.8931 C   0  0  0  0  0  0  0  0  0  0  0  0
    5.2865   -0.6608   21.3904 N   0  0  0  0  0  0  0  0  0  0  0  0
    5.0475   -1.7601   22.8440 C   0  0  0  0  0  0  0  0  0  0  0  0
    5.7689   -2.7177   23.1844 O   0  0  0  0  0  0  0  0  0  0  0  0
    4.0225   -1.5272   23.8616 C   0  0  0  0  0  0  0  0  0  0  0  0
    4.3992   -2.0183   25.3049 C   0  0  0  0  0  0  0  0  0  0  0  0
    4.8359   -3.1781   25.9041 C   0  0  0  0  0  0  0  0  0  0  0  0
    4.7197   -2.9347   27.2859 C   0  0  0  0  0  0  0  0  0  0  0  0
    4.2293   -1.7231   27.5462 N   0  0  0  0  0  0  0  0  0  0  0  0
    4.0564   -1.1321   26.3076 O   0  0  0  0  0  0  0  0  0  0  0  0
   10.0998   -1.5339   15.0848 C   0  0  0  0  0  0  0  0  0  0  0  0
   11.5468   -2.2171   14.4517 S   0  0  0  0  0  0  0  0  0  0  0  0
   13.9042    0.5195   13.6434 H   0  0  0  0  0  0  0  0  0  0  0  0
   13.6316   -0.9510   12.6991 H   0  0  0  0  0  0  0  0  0  0  0  0
   14.3759   -1.0505   14.3115 H   0  0  0  0  0  0  0  0  0  0  0  0
   11.7963    1.3209   15.0088 H   0  0  0  0  0  0  0  0  0  0  0  0
    8.1232   -0.9676   16.4136 H   0  0  0  0  0  0  0  0  0  0  0  0
    6.3724   -0.2907   17.7745 H   0  0  0  0  0  0  0  0  0  0  0  0
    7.0644    2.6956   18.7334 H   0  0  0  0  0  0  0  0  0  0  0  0
    8.6752    2.1973   18.4205 H   0  0  0  0  0  0  0  0  0  0  0  0
    7.6066    2.3386   17.1007 H   0  0  0  0  0  0  0  0  0  0  0  0
    7.2317   -1.3643   20.4352 H   0  0  0  0  0  0  0  0  0  0  0  0
    8.1930    1.5123   20.0507 H   0  0  0  0  0  0  0  0  0  0  0  0
    9.1272    0.3901   20.7302 H   0  0  0  0  0  0  0  0  0  0  0  0
    8.9565    0.1743   19.0245 H   0  0  0  0  0  0  0  0  0  0  0  0
    4.5791    0.0980   21.4103 H   0  0  0  0  0  0  0  0  0  0  0  0
    4.0783   -0.4772   24.1615 H   0  0  0  0  0  0  0  0  0  0  0  0
    3.1623   -2.0154   23.4291 H   0  0  0  0  0  0  0  0  0  0  0  0
    5.1891   -4.0729   25.4126 H   0  0  0  0  0  0  0  0  0  0  0  0
    4.9685   -3.5884   28.1093 H   0  0  0  0  0  0  0  0  0  0  0  0
    9.2532   -2.1901   15.1797 H   0  0  0  0  0  0  0  0  0  0  0  0
  1  2  1  0
  2  3  2  0
  3  4  1  0
  4  5  1  0
  5  6  2  0
  5  7  1  0
  7  8  1  0
  8  9  1  0
  8 10  1  0
 10 11  1  0
 10 12  1  0
 12 13  1  0
 13 14  2  0
 13 15  1  0
 15 16  1  0
 16 17  2  0
 17 18  1  0
 18 19  2  0
 19 20  1  0
  4 21  2  0
 21 22  1  0
 22  2  1  0
 20 16  1  0
  1 23  1  0
  1 24  1  0
  1 25  1  0
  3 26  1  0
  7 27  1  0
  8 28  1  0
  9 29  1  0
  9 30  1  0
  9 31  1  0
 10 32  1  0
 11 33  1  0
 11 34  1  0
 11 35  1  0
 12 36  1  0
 15 37  1  0
 15 38  1  0
 17 39  1  0
 18 40  1  0
 21 41  1  0
M  END
>  <Energy>  (344) 
477.66019671406923

>  <compound_id>  (344) 
39869

>  <target_id>  (344) 
1

>  <reference_id>  (344) 
59

>  <inspiration_ids>  (344) 
[76, 59]

>  <energy_score>  (344) 
441.04574445435543

>  <distance_score>  (344) 
6.702829815423154

>  <path>  (344) 
/opt/xchem-fragalysis-2/maxwin/BulkDock/SCRATCH/511017/C39869-P59/C39869-P59.minimised.mol

>  <scratch_subdir>  (344) 
/opt/xchem-fragalysis-2/maxwin/BulkDock/SCRATCH/511017/C39869-P59

>  <fragmenstein_runtime>  (344) 
6.851052761077881

>  <fragmenstein_outcome>  (344) 
too moved

>  <fragmenstein_mode>  (344) 
expansion

>  <fragmenstein_error>  (344) 


$$$$
C39872-P76
     RDKit          3D

 44 45  0  0  0  0  0  0  0  0999 V2000
    2.9542    1.3166   26.9249 C   0  0  0  0  0  0  0  0  0  0  0  0
    2.5036   -0.0853   27.1379 C   0  0  0  0  0  0  0  0  0  0  0  0
    1.3053   -0.3186   28.3612 S   0  0  0  0  0  0  0  0  0  0  0  0
    1.2866   -1.9842   28.0909 C   0  0  0  0  0  0  0  0  0  0  0  0
    2.1754   -2.3324   27.0957 C   0  0  0  0  0  0  0  0  0  0  0  0
    2.8921   -1.2615   26.4695 C   0  0  0  0  0  0  0  0  0  0  0  0
    4.0188   -1.3986   25.3484 C   0  0  0  0  0  0  0  0  0  0  0  0
    3.8750   -2.0575   23.8422 C   0  0  0  0  0  0  0  0  0  0  0  0
    2.8415   -2.5230   23.4620 O   0  0  0  0  0  0  0  0  0  0  0  0
    5.1860   -1.8458   23.1062 N   0  0  0  0  0  0  0  0  0  0  0  0
    5.6316   -2.0976   21.3796 C   0  0  0  0  0  0  0  0  0  0  0  0
    5.3320   -3.1162   20.2652 C   0  0  0  0  0  0  0  0  0  0  0  0
    6.7717   -0.7938   20.5307 C   0  0  0  0  0  0  0  0  0  0  0  0
    7.3755   -0.0260   19.2205 C   0  0  0  0  0  0  0  0  0  0  0  0
    6.7931    0.6837   18.0982 N   0  0  0  0  0  0  0  0  0  0  0  0
    6.8308    0.4112   16.6834 C   0  0  0  0  0  0  0  0  0  0  0  0
    7.2877   -0.5190   16.0760 O   0  0  0  0  0  0  0  0  0  0  0  0
    6.2733    1.5726   15.8515 C   0  0  0  0  0  0  0  0  0  0  0  0
    7.3745    2.0437   14.9663 C   0  0  0  0  0  0  0  0  0  0  0  0
    8.1154    1.4756   13.9528 C   0  0  0  0  0  0  0  0  0  0  0  0
    9.0514    2.4678   13.6180 C   0  0  0  0  0  0  0  0  0  0  0  0
    8.8723    3.5839   14.3308 N   0  0  0  0  0  0  0  0  0  0  0  0
    7.8194    3.3113   15.1864 O   0  0  0  0  0  0  0  0  0  0  0  0
    2.6346    1.9978   27.7204 H   0  0  0  0  0  0  0  0  0  0  0  0
    2.5646    1.7010   25.9769 H   0  0  0  0  0  0  0  0  0  0  0  0
    4.0480    1.3592   26.8837 H   0  0  0  0  0  0  0  0  0  0  0  0
    0.6266   -2.6379   28.6416 H   0  0  0  0  0  0  0  0  0  0  0  0
    2.2320   -3.3424   26.7696 H   0  0  0  0  0  0  0  0  0  0  0  0
    4.9206   -1.7443   25.8395 H   0  0  0  0  0  0  0  0  0  0  0  0
    4.2353   -0.3474   25.1158 H   0  0  0  0  0  0  0  0  0  0  0  0
    5.8579   -1.5192   23.7354 H   0  0  0  0  0  0  0  0  0  0  0  0
    6.1256   -2.9147   21.8352 H   0  0  0  0  0  0  0  0  0  0  0  0
    5.2361   -2.6934   19.2914 H   0  0  0  0  0  0  0  0  0  0  0  0
    4.5004   -3.6440   20.6055 H   0  0  0  0  0  0  0  0  0  0  0  0
    5.9088   -3.9551   19.8594 H   0  0  0  0  0  0  0  0  0  0  0  0
    7.7535   -1.0854   20.7493 H   0  0  0  0  0  0  0  0  0  0  0  0
    6.2410    0.0246   21.0000 H   0  0  0  0  0  0  0  0  0  0  0  0
    7.8924    0.8240   19.7005 H   0  0  0  0  0  0  0  0  0  0  0  0
    8.2416   -0.5523   18.8587 H   0  0  0  0  0  0  0  0  0  0  0  0
    6.4056    1.5984   18.2448 H   0  0  0  0  0  0  0  0  0  0  0  0
    5.9025    2.3895   16.4770 H   0  0  0  0  0  0  0  0  0  0  0  0
    5.4323    1.1977   15.2588 H   0  0  0  0  0  0  0  0  0  0  0  0
    8.0265    0.4788   13.5411 H   0  0  0  0  0  0  0  0  0  0  0  0
    9.8518    2.4277   12.8932 H   0  0  0  0  0  0  0  0  0  0  0  0
  1  2  1  0
  2  3  1  0
  3  4  1  0
  4  5  2  0
  5  6  1  0
  6  7  1  0
  7  8  1  0
  8  9  2  0
  8 10  1  0
 10 11  1  0
 11 12  1  0
 11 13  1  0
 13 14  1  0
 14 15  1  0
 15 16  1  0
 16 17  2  0
 16 18  1  0
 18 19  1  0
 19 20  2  0
 20 21  1  0
 21 22  2  0
 22 23  1  0
  6  2  2  0
 23 19  1  0
  1 24  1  0
  1 25  1  0
  1 26  1  0
  4 27  1  0
  5 28  1  0
  7 29  1  0
  7 30  1  0
 10 31  1  0
 11 32  1  0
 12 33  1  0
 12 34  1  0
 12 35  1  0
 13 36  1  0
 13 37  1  0
 14 38  1  0
 14 39  1  0
 15 40  1  0
 18 41  1  0
 18 42  1  0
 20 43  1  0
 21 44  1  0
M  END
>  <Energy>  (345) 
236.43218603088448

>  <compound_id>  (345) 
39872

>  <target_id>  (345) 
1

>  <reference_id>  (345) 
76

>  <inspiration_ids>  (345) 
[76, 59]

>  <energy_score>  (345) 
185.29782919130122

>  <distance_score>  (345) 
9.146207662144203

>  <path>  (345) 
/opt/xchem-fragalysis-2/maxwin/BulkDock/SCRATCH/511017/C39872-P76/C39872-P76.minimised.mol

>  <scratch_subdir>  (345) 
/opt/xchem-fragalysis-2/maxwin/BulkDock/SCRATCH/511017/C39872-P76

>  <fragmenstein_runtime>  (345) 
22.025657653808594

>  <fragmenstein_outcome>  (345) 
too moved

>  <fragmenstein_mode>  (345) 
expansion

>  <fragmenstein_error>  (345) 


$$$$
C39872-P59
     RDKit          3D

 44 45  0  0  0  0  0  0  0  0999 V2000
   -3.2748   -1.4252   31.9274 C   0  0  0  0  0  0  0  0  0  0  0  0
   -2.5633   -0.6403   32.9572 C   0  0  0  0  0  0  0  0  0  0  0  0
   -3.4746   -0.2236   34.3549 S   0  0  0  0  0  0  0  0  0  0  0  0
   -2.1508    0.5934   35.0178 C   0  0  0  0  0  0  0  0  0  0  0  0
   -1.0318    0.5401   34.2014 C   0  0  0  0  0  0  0  0  0  0  0  0
   -1.2404   -0.1766   32.9644 C   0  0  0  0  0  0  0  0  0  0  0  0
   -0.1139   -0.4222   31.8670 C   0  0  0  0  0  0  0  0  0  0  0  0
    0.8123    0.8075   31.4857 C   0  0  0  0  0  0  0  0  0  0  0  0
    0.5231    1.8869   31.8625 O   0  0  0  0  0  0  0  0  0  0  0  0
    2.0667    0.3149   30.6297 N   0  0  0  0  0  0  0  0  0  0  0  0
    3.1809    1.1060   29.9783 C   0  0  0  0  0  0  0  0  0  0  0  0
    3.8539    1.9411   31.0747 C   0  0  0  0  0  0  0  0  0  0  0  0
    4.2925    0.3302   29.1111 C   0  0  0  0  0  0  0  0  0  0  0  0
    5.3471    1.2835   28.3996 C   0  0  0  0  0  0  0  0  0  0  0  0
    6.4821    0.7622   27.5789 N   0  0  0  0  0  0  0  0  0  0  0  0
    7.6143    1.5403   26.7698 C   0  0  0  0  0  0  0  0  0  0  0  0
    7.7571    2.6934   26.5789 O   0  0  0  0  0  0  0  0  0  0  0  0
    8.6801    0.5077   26.1929 C   0  0  0  0  0  0  0  0  0  0  0  0
    9.7009    1.0234   25.1215 C   0  0  0  0  0  0  0  0  0  0  0  0
   10.7668    0.4604   24.4383 C   0  0  0  0  0  0  0  0  0  0  0  0
   11.2337    1.4569   23.5503 C   0  0  0  0  0  0  0  0  0  0  0  0
   10.6077    2.6143   23.7806 N   0  0  0  0  0  0  0  0  0  0  0  0
    9.6658    2.3492   24.7749 O   0  0  0  0  0  0  0  0  0  0  0  0
   -4.2932   -1.6987   32.2172 H   0  0  0  0  0  0  0  0  0  0  0  0
   -2.7354   -2.3573   31.7258 H   0  0  0  0  0  0  0  0  0  0  0  0
   -3.2982   -0.8486   30.9993 H   0  0  0  0  0  0  0  0  0  0  0  0
   -2.2286    1.0790   35.9809 H   0  0  0  0  0  0  0  0  0  0  0  0
   -0.0931    1.0104   34.4740 H   0  0  0  0  0  0  0  0  0  0  0  0
    0.5278   -1.2273   32.2431 H   0  0  0  0  0  0  0  0  0  0  0  0
   -0.5989   -0.7571   30.9433 H   0  0  0  0  0  0  0  0  0  0  0  0
    1.9639   -0.6689   30.4105 H   0  0  0  0  0  0  0  0  0  0  0  0
    2.6616    1.7964   29.3026 H   0  0  0  0  0  0  0  0  0  0  0  0
    3.1164    2.4863   31.6724 H   0  0  0  0  0  0  0  0  0  0  0  0
    4.4209    1.3000   31.7582 H   0  0  0  0  0  0  0  0  0  0  0  0
    4.5317    2.6908   30.6589 H   0  0  0  0  0  0  0  0  0  0  0  0
    4.8270   -0.3730   29.7605 H   0  0  0  0  0  0  0  0  0  0  0  0
    3.7849   -0.2682   28.3456 H   0  0  0  0  0  0  0  0  0  0  0  0
    5.8401    1.9005   29.1565 H   0  0  0  0  0  0  0  0  0  0  0  0
    4.8056    1.9752   27.7442 H   0  0  0  0  0  0  0  0  0  0  0  0
    6.6157   -0.2374   27.4754 H   0  0  0  0  0  0  0  0  0  0  0  0
    9.2576    0.1369   27.0475 H   0  0  0  0  0  0  0  0  0  0  0  0
    8.1316   -0.3324   25.7549 H   0  0  0  0  0  0  0  0  0  0  0  0
   11.1397   -0.5415   24.5866 H   0  0  0  0  0  0  0  0  0  0  0  0
   12.0361    1.4157   22.8301 H   0  0  0  0  0  0  0  0  0  0  0  0
  1  2  1  0
  2  3  1  0
  3  4  1  0
  4  5  2  0
  5  6  1  0
  6  7  1  0
  7  8  1  0
  8  9  2  0
  8 10  1  0
 10 11  1  0
 11 12  1  0
 11 13  1  0
 13 14  1  0
 14 15  1  0
 15 16  1  0
 16 17  2  0
 16 18  1  0
 18 19  1  0
 19 20  2  0
 20 21  1  0
 21 22  2  0
 22 23  1  0
  6  2  2  0
 23 19  1  0
  1 24  1  0
  1 25  1  0
  1 26  1  0
  4 27  1  0
  5 28  1  0
  7 29  1  0
  7 30  1  0
 10 31  1  0
 11 32  1  0
 12 33  1  0
 12 34  1  0
 12 35  1  0
 13 36  1  0
 13 37  1  0
 14 38  1  0
 14 39  1  0
 15 40  1  0
 18 41  1  0
 18 42  1  0
 20 43  1  0
 21 44  1  0
M  END
>  <Energy>  (346) 
78.585831197023651

>  <compound_id>  (346) 
39872

>  <target_id>  (346) 
1

>  <reference_id>  (346) 
59

>  <inspiration_ids>  (346) 
[76, 59]

>  <energy_score>  (346) 
18.173484193081606

>  <distance_score>  (346) 
9.648262184649097

>  <path>  (346) 
/opt/xchem-fragalysis-2/maxwin/BulkDock/SCRATCH/511017/C39872-P59/C39872-P59.minimised.mol

>  <scratch_subdir>  (346) 
/opt/xchem-fragalysis-2/maxwin/BulkDock/SCRATCH/511017/C39872-P59

>  <fragmenstein_runtime>  (346) 
17.90732169151306

>  <fragmenstein_outcome>  (346) 
too moved

>  <fragmenstein_mode>  (346) 
expansion

>  <fragmenstein_error>  (346) 


$$$$
C39874-P76
     RDKit          3D

 41 42  0  0  0  0  0  0  0  0999 V2000
    8.2463    2.3952   18.3955 C   0  0  0  0  0  0  0  0  0  0  0  0
    7.2770    1.7510   19.3378 C   0  0  0  0  0  0  0  0  0  0  0  0
    6.2168    2.3448   19.9723 C   0  0  0  0  0  0  0  0  0  0  0  0
    5.4499    1.4853   20.8320 C   0  0  0  0  0  0  0  0  0  0  0  0
    5.9222    0.1752   21.0514 C   0  0  0  0  0  0  0  0  0  0  0  0
    5.2395   -1.3987   22.0080 C   0  0  0  0  0  0  0  0  0  0  0  0
    4.5895   -1.4965   23.8273 C   0  0  0  0  0  0  0  0  0  0  0  0
    3.4277   -2.3885   24.1947 C   0  0  0  0  0  0  0  0  0  0  0  0
    4.2713   -0.3517   24.7451 N   0  0  0  0  0  0  0  0  0  0  0  0
    4.3704   -0.2325   26.1725 C   0  0  0  0  0  0  0  0  0  0  0  0
    4.8082   -0.9856   26.9916 O   0  0  0  0  0  0  0  0  0  0  0  0
    3.6845    1.0723   26.6903 C   0  0  0  0  0  0  0  0  0  0  0  0
    4.0032    2.1362   26.2353 O   0  0  0  0  0  0  0  0  0  0  0  0
    2.6591    0.7306   27.6239 N   0  0  0  0  0  0  0  0  0  0  0  0
    3.2051    0.7699   29.0304 C   0  0  0  0  0  0  0  0  0  0  0  0
    1.5808    1.5719   28.2488 C   0  0  0  0  0  0  0  0  0  0  0  0
    0.4093    0.7351   28.6708 C   0  0  0  0  0  0  0  0  0  0  0  0
   -0.0698   -0.5005   28.3017 C   0  0  0  0  0  0  0  0  0  0  0  0
   -1.2280   -0.6647   29.0759 C   0  0  0  0  0  0  0  0  0  0  0  0
   -1.4486    0.3798   29.8797 N   0  0  0  0  0  0  0  0  0  0  0  0
   -0.4094    1.2643   29.6232 O   0  0  0  0  0  0  0  0  0  0  0  0
    7.3678    0.0792   19.6368 S   0  0  0  0  0  0  0  0  0  0  0  0
    9.2758    2.2654   18.7323 H   0  0  0  0  0  0  0  0  0  0  0  0
    8.0613    3.4737   18.3366 H   0  0  0  0  0  0  0  0  0  0  0  0
    8.1294    1.9922   17.3862 H   0  0  0  0  0  0  0  0  0  0  0  0
    5.9581    3.3861   19.8200 H   0  0  0  0  0  0  0  0  0  0  0  0
    4.5335    1.8156   21.3010 H   0  0  0  0  0  0  0  0  0  0  0  0
    5.3926   -2.2783   21.3479 H   0  0  0  0  0  0  0  0  0  0  0  0
    5.9582   -1.8653   22.5871 H   0  0  0  0  0  0  0  0  0  0  0  0
    5.4332   -1.9591   24.3566 H   0  0  0  0  0  0  0  0  0  0  0  0
    3.7510   -3.2105   24.8275 H   0  0  0  0  0  0  0  0  0  0  0  0
    2.8528   -2.7383   23.3474 H   0  0  0  0  0  0  0  0  0  0  0  0
    2.7643   -1.8612   24.8798 H   0  0  0  0  0  0  0  0  0  0  0  0
    3.7643    0.4529   24.3777 H   0  0  0  0  0  0  0  0  0  0  0  0
    4.0667    0.0887   29.0366 H   0  0  0  0  0  0  0  0  0  0  0  0
    3.6619    1.7389   29.2893 H   0  0  0  0  0  0  0  0  0  0  0  0
    2.5618    0.3545   29.8200 H   0  0  0  0  0  0  0  0  0  0  0  0
    1.8404    2.4023   28.9280 H   0  0  0  0  0  0  0  0  0  0  0  0
    1.2039    2.1359   27.3795 H   0  0  0  0  0  0  0  0  0  0  0  0
    0.3623   -1.1742   27.5750 H   0  0  0  0  0  0  0  0  0  0  0  0
   -1.9176   -1.4972   29.0889 H   0  0  0  0  0  0  0  0  0  0  0  0
  1  2  1  0
  2  3  2  0
  3  4  1  0
  4  5  2  0
  5  6  1  0
  6  7  1  0
  7  8  1  0
  7  9  1  0
  9 10  1  0
 10 11  2  0
 10 12  1  0
 12 13  2  0
 12 14  1  0
 14 15  1  0
 14 16  1  0
 16 17  1  0
 17 18  2  0
 18 19  1  0
 19 20  2  0
 20 21  1  0
  5 22  1  0
 22  2  1  0
 21 17  1  0
  1 23  1  0
  1 24  1  0
  1 25  1  0
  3 26  1  0
  4 27  1  0
  6 28  1  0
  6 29  1  0
  7 30  1  0
  8 31  1  0
  8 32  1  0
  8 33  1  0
  9 34  1  0
 15 35  1  0
 15 36  1  0
 15 37  1  0
 16 38  1  0
 16 39  1  0
 18 40  1  0
 19 41  1  0
M  END
>  <Energy>  (347) 
295.9440553442833

>  <compound_id>  (347) 
39874

>  <target_id>  (347) 
1

>  <reference_id>  (347) 
76

>  <inspiration_ids>  (347) 
[76, 59]

>  <energy_score>  (347) 
209.47536231646814

>  <distance_score>  (347) 
8.919898108211681

>  <path>  (347) 
/opt/xchem-fragalysis-2/maxwin/BulkDock/SCRATCH/511017/C39874-P76/C39874-P76.minimised.mol

>  <scratch_subdir>  (347) 
/opt/xchem-fragalysis-2/maxwin/BulkDock/SCRATCH/511017/C39874-P76

>  <fragmenstein_runtime>  (347) 
16.570736169815063

>  <fragmenstein_outcome>  (347) 
too moved

>  <fragmenstein_mode>  (347) 
expansion

>  <fragmenstein_error>  (347) 


$$$$
C39874-P59
     RDKit          3D

 41 42  0  0  0  0  0  0  0  0999 V2000
   15.6379   -2.2674   18.8157 C   0  0  0  0  0  0  0  0  0  0  0  0
   14.7360   -2.9506   19.7895 C   0  0  0  0  0  0  0  0  0  0  0  0
   14.0431   -4.1289   19.6234 C   0  0  0  0  0  0  0  0  0  0  0  0
   13.2252   -4.4329   20.7512 C   0  0  0  0  0  0  0  0  0  0  0  0
   13.2802   -3.4682   21.7438 C   0  0  0  0  0  0  0  0  0  0  0  0
   12.3495   -3.3710   22.9464 C   0  0  0  0  0  0  0  0  0  0  0  0
   12.8376   -2.6304   24.2062 C   0  0  0  0  0  0  0  0  0  0  0  0
   13.6739   -3.5413   25.1013 C   0  0  0  0  0  0  0  0  0  0  0  0
   11.7395   -2.0144   24.9678 N   0  0  0  0  0  0  0  0  0  0  0  0
   10.6393   -2.6070   25.6909 C   0  0  0  0  0  0  0  0  0  0  0  0
   10.2957   -3.7455   25.7896 O   0  0  0  0  0  0  0  0  0  0  0  0
    9.8597   -1.4456   26.4559 C   0  0  0  0  0  0  0  0  0  0  0  0
   10.4689   -0.4081   26.5354 O   0  0  0  0  0  0  0  0  0  0  0  0
    8.5561   -1.7984   26.9326 N   0  0  0  0  0  0  0  0  0  0  0  0
    8.6509   -2.3690   28.3186 C   0  0  0  0  0  0  0  0  0  0  0  0
    7.4754   -0.9488   27.5914 C   0  0  0  0  0  0  0  0  0  0  0  0
    6.0742   -1.4794   27.7175 C   0  0  0  0  0  0  0  0  0  0  0  0
    5.2199   -2.2135   26.9276 C   0  0  0  0  0  0  0  0  0  0  0  0
    4.0152   -2.2469   27.6564 C   0  0  0  0  0  0  0  0  0  0  0  0
    4.1102   -1.5946   28.8165 N   0  0  0  0  0  0  0  0  0  0  0  0
    5.4050   -1.1040   28.8519 O   0  0  0  0  0  0  0  0  0  0  0  0
   14.4594   -2.2830   21.3450 S   0  0  0  0  0  0  0  0  0  0  0  0
   16.6832   -2.3818   19.1204 H   0  0  0  0  0  0  0  0  0  0  0  0
   15.5273   -2.6968   17.8145 H   0  0  0  0  0  0  0  0  0  0  0  0
   15.4097   -1.1989   18.7476 H   0  0  0  0  0  0  0  0  0  0  0  0
   14.0830   -4.7373   18.7261 H   0  0  0  0  0  0  0  0  0  0  0  0
   12.5526   -5.2812   20.7848 H   0  0  0  0  0  0  0  0  0  0  0  0
   11.4510   -2.8669   22.5808 H   0  0  0  0  0  0  0  0  0  0  0  0
   12.0286   -4.3831   23.2236 H   0  0  0  0  0  0  0  0  0  0  0  0
   13.4595   -1.7756   23.9218 H   0  0  0  0  0  0  0  0  0  0  0  0
   13.0893   -4.3940   25.4629 H   0  0  0  0  0  0  0  0  0  0  0  0
   14.0349   -2.9951   25.9797 H   0  0  0  0  0  0  0  0  0  0  0  0
   14.5447   -3.9292   24.5632 H   0  0  0  0  0  0  0  0  0  0  0  0
   11.7776   -1.0153   25.1793 H   0  0  0  0  0  0  0  0  0  0  0  0
    7.7636   -2.9046   28.6811 H   0  0  0  0  0  0  0  0  0  0  0  0
    9.4014   -3.1709   28.2467 H   0  0  0  0  0  0  0  0  0  0  0  0
    9.1016   -1.6878   29.0575 H   0  0  0  0  0  0  0  0  0  0  0  0
    7.3650   -0.1528   26.8349 H   0  0  0  0  0  0  0  0  0  0  0  0
    7.8053   -0.3399   28.4514 H   0  0  0  0  0  0  0  0  0  0  0  0
    5.4419   -2.6388   25.9588 H   0  0  0  0  0  0  0  0  0  0  0  0
    3.0756   -2.7128   27.3991 H   0  0  0  0  0  0  0  0  0  0  0  0
  1  2  1  0
  2  3  2  0
  3  4  1  0
  4  5  2  0
  5  6  1  0
  6  7  1  0
  7  8  1  0
  7  9  1  0
  9 10  1  0
 10 11  2  0
 10 12  1  0
 12 13  2  0
 12 14  1  0
 14 15  1  0
 14 16  1  0
 16 17  1  0
 17 18  2  0
 18 19  1  0
 19 20  2  0
 20 21  1  0
  5 22  1  0
 22  2  1  0
 21 17  1  0
  1 23  1  0
  1 24  1  0
  1 25  1  0
  3 26  1  0
  4 27  1  0
  6 28  1  0
  6 29  1  0
  7 30  1  0
  8 31  1  0
  8 32  1  0
  8 33  1  0
  9 34  1  0
 15 35  1  0
 15 36  1  0
 15 37  1  0
 16 38  1  0
 16 39  1  0
 18 40  1  0
 19 41  1  0
M  END
>  <Energy>  (348) 
123.81960156996182

>  <compound_id>  (348) 
39874

>  <target_id>  (348) 
1

>  <reference_id>  (348) 
59

>  <inspiration_ids>  (348) 
[76, 59]

>  <energy_score>  (348) 
37.35090854214167

>  <distance_score>  (348) 
11.143654234164828

>  <path>  (348) 
/opt/xchem-fragalysis-2/maxwin/BulkDock/SCRATCH/511017/C39874-P59/C39874-P59.minimised.mol

>  <scratch_subdir>  (348) 
/opt/xchem-fragalysis-2/maxwin/BulkDock/SCRATCH/511017/C39874-P59

>  <fragmenstein_runtime>  (348) 
21.855429887771606

>  <fragmenstein_outcome>  (348) 
too moved

>  <fragmenstein_mode>  (348) 
expansion

>  <fragmenstein_error>  (348) 


$$$$
C39875-P76
     RDKit          3D

 26 27  0  0  0  0  0  0  0  0999 V2000
   20.6814    4.1074   13.8297 C   0  0  0  0  0  0  0  0  0  0  0  0
   19.9899    2.8177   13.5490 C   0  0  0  0  0  0  0  0  0  0  0  0
   20.5132    1.6627   13.0090 C   0  0  0  0  0  0  0  0  0  0  0  0
   19.5351    0.6330   12.8973 C   0  0  0  0  0  0  0  0  0  0  0  0
   18.2896    1.0256   13.3548 C   0  0  0  0  0  0  0  0  0  0  0  0
   17.0860    0.2133   13.3769 C   0  0  0  0  0  0  0  0  0  0  0  0
   17.0083   -0.9344   12.9509 O   0  0  0  0  0  0  0  0  0  0  0  0
   16.0243    0.8880   13.9098 O   0  0  0  0  0  0  0  0  0  0  0  0
   14.8402    0.1019   14.0370 C   0  0  0  0  0  0  0  0  0  0  0  0
   14.8987   -0.9144   15.1839 C   0  0  0  0  0  0  0  0  0  0  0  0
   15.8393   -0.9227   15.9789 O   0  0  0  0  0  0  0  0  0  0  0  0
   13.7630   -1.8008   15.2945 C   0  0  0  0  0  0  0  0  0  0  0  0
   12.5948   -1.9444   14.5768 C   0  0  0  0  0  0  0  0  0  0  0  0
   11.8888   -2.9516   15.2542 C   0  0  0  0  0  0  0  0  0  0  0  0
   12.5557   -3.4007   16.3175 N   0  0  0  0  0  0  0  0  0  0  0  0
   13.7464   -2.6907   16.3333 O   0  0  0  0  0  0  0  0  0  0  0  0
   18.3277    2.6452   13.9119 S   0  0  0  0  0  0  0  0  0  0  0  0
   21.7364    4.0563   13.5406 H   0  0  0  0  0  0  0  0  0  0  0  0
   20.2198    4.9261   13.2680 H   0  0  0  0  0  0  0  0  0  0  0  0
   20.6382    4.3470   14.8973 H   0  0  0  0  0  0  0  0  0  0  0  0
   21.5493    1.5559   12.7098 H   0  0  0  0  0  0  0  0  0  0  0  0
   19.7314   -0.3581   12.5030 H   0  0  0  0  0  0  0  0  0  0  0  0
   14.0220    0.7986   14.2504 H   0  0  0  0  0  0  0  0  0  0  0  0
   14.6129   -0.3985   13.0881 H   0  0  0  0  0  0  0  0  0  0  0  0
   12.2782   -1.3986   13.7000 H   0  0  0  0  0  0  0  0  0  0  0  0
   10.9247   -3.3793   15.0179 H   0  0  0  0  0  0  0  0  0  0  0  0
  1  2  1  0
  2  3  2  0
  3  4  1  0
  4  5  2  0
  5  6  1  0
  6  7  2  0
  6  8  1  0
  8  9  1  0
  9 10  1  0
 10 11  2  0
 10 12  1  0
 12 13  2  0
 13 14  1  0
 14 15  2  0
 15 16  1  0
  5 17  1  0
 17  2  1  0
 16 12  1  0
  1 18  1  0
  1 19  1  0
  1 20  1  0
  3 21  1  0
  4 22  1  0
  9 23  1  0
  9 24  1  0
 13 25  1  0
 14 26  1  0
M  END
>  <Energy>  (349) 
31.046823459975812

>  <compound_id>  (349) 
39875

>  <target_id>  (349) 
1

>  <reference_id>  (349) 
76

>  <inspiration_ids>  (349) 
[76, 59]

>  <energy_score>  (349) 
-42.47711955574154

>  <distance_score>  (349) 
1.5466908117219222

>  <path>  (349) 
/opt/xchem-fragalysis-2/maxwin/BulkDock/SCRATCH/511017/C39875-P76/C39875-P76.minimised.mol

>  <scratch_subdir>  (349) 
/opt/xchem-fragalysis-2/maxwin/BulkDock/SCRATCH/511017/C39875-P76

>  <fragmenstein_runtime>  (349) 
0.6089582443237305

>  <fragmenstein_outcome>  (349) 
too moved

>  <fragmenstein_mode>  (349) 
expansion

>  <fragmenstein_error>  (349) 


$$$$
C39875-P59
     RDKit          3D

 26 27  0  0  0  0  0  0  0  0999 V2000
   19.1803    5.2376   13.5605 C   0  0  0  0  0  0  0  0  0  0  0  0
   18.7524    3.8260   13.3489 C   0  0  0  0  0  0  0  0  0  0  0  0
   19.4731    2.7828   12.8085 C   0  0  0  0  0  0  0  0  0  0  0  0
   18.7213    1.5733   12.7742 C   0  0  0  0  0  0  0  0  0  0  0  0
   17.4455    1.7215   13.2890 C   0  0  0  0  0  0  0  0  0  0  0  0
   16.4345    0.6847   13.3956 C   0  0  0  0  0  0  0  0  0  0  0  0
   16.5695   -0.4706   13.0045 O   0  0  0  0  0  0  0  0  0  0  0  0
   15.2830    1.1527   13.9643 O   0  0  0  0  0  0  0  0  0  0  0  0
   14.2971    0.1451   14.1830 C   0  0  0  0  0  0  0  0  0  0  0  0
   14.6200   -0.7861   15.3573 C   0  0  0  0  0  0  0  0  0  0  0  0
   15.5747   -0.5582   16.1015 O   0  0  0  0  0  0  0  0  0  0  0  0
   13.7085   -1.8913   15.5435 C   0  0  0  0  0  0  0  0  0  0  0  0
   12.6732   -2.4135   14.7961 C   0  0  0  0  0  0  0  0  0  0  0  0
   12.1987   -3.4907   15.5642 C   0  0  0  0  0  0  0  0  0  0  0  0
   12.8536   -3.6030   16.7178 N   0  0  0  0  0  0  0  0  0  0  0  0
   13.8227   -2.6172   16.6940 O   0  0  0  0  0  0  0  0  0  0  0  0
   17.1801    3.3334   13.8064 S   0  0  0  0  0  0  0  0  0  0  0  0
   20.2081    5.3907   13.2149 H   0  0  0  0  0  0  0  0  0  0  0  0
   18.5347    5.9265   13.0059 H   0  0  0  0  0  0  0  0  0  0  0  0
   19.1418    5.5001   14.6228 H   0  0  0  0  0  0  0  0  0  0  0  0
   20.4935    2.8777   12.4559 H   0  0  0  0  0  0  0  0  0  0  0  0
   19.0967    0.6299   12.3931 H   0  0  0  0  0  0  0  0  0  0  0  0
   13.3619    0.6649   14.4192 H   0  0  0  0  0  0  0  0  0  0  0  0
   14.1340   -0.4292   13.2633 H   0  0  0  0  0  0  0  0  0  0  0  0
   12.3129   -2.0867   13.8320 H   0  0  0  0  0  0  0  0  0  0  0  0
   11.4072   -4.1932   15.3463 H   0  0  0  0  0  0  0  0  0  0  0  0
  1  2  1  0
  2  3  2  0
  3  4  1  0
  4  5  2  0
  5  6  1  0
  6  7  2  0
  6  8  1  0
  8  9  1  0
  9 10  1  0
 10 11  2  0
 10 12  1  0
 12 13  2  0
 13 14  1  0
 14 15  2  0
 15 16  1  0
  5 17  1  0
 17  2  1  0
 16 12  1  0
  1 18  1  0
  1 19  1  0
  1 20  1  0
  3 21  1  0
  4 22  1  0
  9 23  1  0
  9 24  1  0
 13 25  1  0
 14 26  1  0
M  END
>  <Energy>  (350) 
31.077561512208906

>  <compound_id>  (350) 
39875

>  <target_id>  (350) 
1

>  <reference_id>  (350) 
59

>  <inspiration_ids>  (350) 
[76, 59]

>  <energy_score>  (350) 
-42.44638150350845

>  <distance_score>  (350) 
1.2376074026543693

>  <path>  (350) 
/opt/xchem-fragalysis-2/maxwin/BulkDock/SCRATCH/511017/C39875-P59/C39875-P59.minimised.mol

>  <scratch_subdir>  (350) 
/opt/xchem-fragalysis-2/maxwin/BulkDock/SCRATCH/511017/C39875-P59

>  <fragmenstein_runtime>  (350) 
0.9453301429748535

>  <fragmenstein_outcome>  (350) 
too moved

>  <fragmenstein_mode>  (350) 
expansion

>  <fragmenstein_error>  (350) 


$$$$
C39877-P76
     RDKit          3D

 38 39  0  0  0  0  0  0  0  0999 V2000
   15.7865    2.1406   18.5989 C   0  0  0  0  0  0  0  0  0  0  0  0
   14.8721    1.9579   19.7615 C   0  0  0  0  0  0  0  0  0  0  0  0
   13.7536    2.6932   20.1020 C   0  0  0  0  0  0  0  0  0  0  0  0
   13.0881    2.2002   21.2871 C   0  0  0  0  0  0  0  0  0  0  0  0
   11.7851    2.6381   21.8469 C   0  0  0  0  0  0  0  0  0  0  0  0
   11.6439    2.6692   23.0313 O   0  0  0  0  0  0  0  0  0  0  0  0
   10.8663    2.9290   20.7881 N   0  0  0  0  0  0  0  0  0  0  0  0
    9.5021    3.4461   20.8192 C   0  0  0  0  0  0  0  0  0  0  0  0
    9.5786    4.8853   20.3019 C   0  0  0  0  0  0  0  0  0  0  0  0
    8.5351    2.6236   19.9314 C   0  0  0  0  0  0  0  0  0  0  0  0
    7.4595    1.9084   20.5933 N   0  0  0  0  0  0  0  0  0  0  0  0
    6.2841    2.4214   21.4428 C   0  0  0  0  0  0  0  0  0  0  0  0
    6.0261    3.5607   21.8317 O   0  0  0  0  0  0  0  0  0  0  0  0
    4.8520    0.9269   22.0120 C   0  0  0  0  0  0  0  0  0  0  0  0
    4.3595    0.3358   23.9832 C   0  0  0  0  0  0  0  0  0  0  0  0
    4.3249   -0.9503   24.6540 C   0  0  0  0  0  0  0  0  0  0  0  0
    3.7061   -0.7437   25.9002 C   0  0  0  0  0  0  0  0  0  0  0  0
    3.3006    0.5112   26.0660 N   0  0  0  0  0  0  0  0  0  0  0  0
    3.5152    1.1410   24.8491 O   0  0  0  0  0  0  0  0  0  0  0  0
   13.8211    1.1624   21.8410 C   0  0  0  0  0  0  0  0  0  0  0  0
   15.1687    0.7082   20.8890 S   0  0  0  0  0  0  0  0  0  0  0  0
   16.8077    2.3469   18.9356 H   0  0  0  0  0  0  0  0  0  0  0  0
   15.7984    1.2438   17.9706 H   0  0  0  0  0  0  0  0  0  0  0  0
   15.4626    2.9808   17.9759 H   0  0  0  0  0  0  0  0  0  0  0  0
   13.4061    3.5355   19.5148 H   0  0  0  0  0  0  0  0  0  0  0  0
   11.3053    2.7167   19.9038 H   0  0  0  0  0  0  0  0  0  0  0  0
    9.1685    3.4505   21.8626 H   0  0  0  0  0  0  0  0  0  0  0  0
    9.9453    4.9217   19.2696 H   0  0  0  0  0  0  0  0  0  0  0  0
    8.5938    5.3633   20.3350 H   0  0  0  0  0  0  0  0  0  0  0  0
   10.2616    5.4836   20.9155 H   0  0  0  0  0  0  0  0  0  0  0  0
    8.0180    3.2966   19.2371 H   0  0  0  0  0  0  0  0  0  0  0  0
    9.0591    1.8965   19.3138 H   0  0  0  0  0  0  0  0  0  0  0  0
    7.3173    0.9276   20.3868 H   0  0  0  0  0  0  0  0  0  0  0  0
    5.2128    0.0732   21.4100 H   0  0  0  0  0  0  0  0  0  0  0  0
    3.8111    1.0249   21.6697 H   0  0  0  0  0  0  0  0  0  0  0  0
    4.6889   -1.8773   24.2390 H   0  0  0  0  0  0  0  0  0  0  0  0
    3.5189   -1.4618   26.6845 H   0  0  0  0  0  0  0  0  0  0  0  0
   13.5802    0.5958   22.7324 H   0  0  0  0  0  0  0  0  0  0  0  0
  1  2  1  0
  2  3  2  0
  3  4  1  0
  4  5  1  0
  5  6  2  0
  5  7  1  0
  7  8  1  0
  8  9  1  0
  8 10  1  0
 10 11  1  0
 11 12  1  0
 12 13  2  0
 12 14  1  0
 14 15  1  0
 15 16  2  0
 16 17  1  0
 17 18  2  0
 18 19  1  0
  4 20  2  0
 20 21  1  0
 21  2  1  0
 19 15  1  0
  1 22  1  0
  1 23  1  0
  1 24  1  0
  3 25  1  0
  7 26  1  0
  8 27  1  0
  9 28  1  0
  9 29  1  0
  9 30  1  0
 10 31  1  0
 10 32  1  0
 11 33  1  0
 14 34  1  0
 14 35  1  0
 16 36  1  0
 17 37  1  0
 20 38  1  0
M  END
>  <Energy>  (351) 
237.95309372524915

>  <compound_id>  (351) 
39877

>  <target_id>  (351) 
1

>  <reference_id>  (351) 
76

>  <inspiration_ids>  (351) 
[76, 59]

>  <energy_score>  (351) 
198.97584546406864

>  <distance_score>  (351) 
7.8063450486018855

>  <path>  (351) 
/opt/xchem-fragalysis-2/maxwin/BulkDock/SCRATCH/511017/C39877-P76/C39877-P76.minimised.mol

>  <scratch_subdir>  (351) 
/opt/xchem-fragalysis-2/maxwin/BulkDock/SCRATCH/511017/C39877-P76

>  <fragmenstein_runtime>  (351) 
7.374406814575195

>  <fragmenstein_outcome>  (351) 
too moved

>  <fragmenstein_mode>  (351) 
expansion

>  <fragmenstein_error>  (351) 


$$$$
C39877-P59
     RDKit          3D

 38 39  0  0  0  0  0  0  0  0999 V2000
   14.8855   -3.5462   15.9745 C   0  0  0  0  0  0  0  0  0  0  0  0
   13.6244   -2.8393   15.6149 C   0  0  0  0  0  0  0  0  0  0  0  0
   13.4135   -1.4891   15.4313 C   0  0  0  0  0  0  0  0  0  0  0  0
   12.0433   -1.1621   15.1343 C   0  0  0  0  0  0  0  0  0  0  0  0
   11.5427    0.2190   14.9623 C   0  0  0  0  0  0  0  0  0  0  0  0
   12.2874    1.0214   14.4836 O   0  0  0  0  0  0  0  0  0  0  0  0
   10.2223    0.3740   15.5097 N   0  0  0  0  0  0  0  0  0  0  0  0
    9.3414    1.5329   15.5663 C   0  0  0  0  0  0  0  0  0  0  0  0
    9.9493    2.7622   14.8836 C   0  0  0  0  0  0  0  0  0  0  0  0
    8.8845    1.9129   16.9905 C   0  0  0  0  0  0  0  0  0  0  0  0
    8.2262    0.8968   17.7904 N   0  0  0  0  0  0  0  0  0  0  0  0
    7.7957    0.9096   19.1996 C   0  0  0  0  0  0  0  0  0  0  0  0
    7.9567    1.7312   20.0462 O   0  0  0  0  0  0  0  0  0  0  0  0
    7.0703   -0.5909   19.5233 C   0  0  0  0  0  0  0  0  0  0  0  0
    6.0223   -1.8416   20.6705 C   0  0  0  0  0  0  0  0  0  0  0  0
    5.6807   -3.2729   20.9319 C   0  0  0  0  0  0  0  0  0  0  0  0
    4.9805   -3.4699   22.1621 C   0  0  0  0  0  0  0  0  0  0  0  0
    4.6961   -2.3628   22.8464 N   0  0  0  0  0  0  0  0  0  0  0  0
    5.0089   -1.2039   21.7862 O   0  0  0  0  0  0  0  0  0  0  0  0
   11.2990   -2.3206   15.0213 C   0  0  0  0  0  0  0  0  0  0  0  0
   12.1898   -3.7299   15.3865 S   0  0  0  0  0  0  0  0  0  0  0  0
   15.1206   -4.3262   15.2428 H   0  0  0  0  0  0  0  0  0  0  0  0
   15.7295   -2.8491   16.0019 H   0  0  0  0  0  0  0  0  0  0  0  0
   14.7999   -4.0087   16.9633 H   0  0  0  0  0  0  0  0  0  0  0  0
   14.1949   -0.7436   15.5364 H   0  0  0  0  0  0  0  0  0  0  0  0
    9.8578   -0.5331   15.7494 H   0  0  0  0  0  0  0  0  0  0  0  0
    8.4614    1.2287   15.0018 H   0  0  0  0  0  0  0  0  0  0  0  0
   10.2011    2.5477   13.8395 H   0  0  0  0  0  0  0  0  0  0  0  0
    9.2383    3.5955   14.8834 H   0  0  0  0  0  0  0  0  0  0  0  0
   10.8583    3.0968   15.3946 H   0  0  0  0  0  0  0  0  0  0  0  0
    9.7136    2.2763   17.5871 H   0  0  0  0  0  0  0  0  0  0  0  0
    8.1769    2.7490   16.9321 H   0  0  0  0  0  0  0  0  0  0  0  0
    7.8479    0.0856   17.3383 H   0  0  0  0  0  0  0  0  0  0  0  0
    6.6382   -0.6856   18.5138 H   0  0  0  0  0  0  0  0  0  0  0  0
    8.0540   -0.9857   19.4887 H   0  0  0  0  0  0  0  0  0  0  0  0
    5.9529   -4.1202   20.3161 H   0  0  0  0  0  0  0  0  0  0  0  0
    4.6926   -4.4177   22.5945 H   0  0  0  0  0  0  0  0  0  0  0  0
   10.2614   -2.4211   14.7378 H   0  0  0  0  0  0  0  0  0  0  0  0
  1  2  1  0
  2  3  2  0
  3  4  1  0
  4  5  1  0
  5  6  2  0
  5  7  1  0
  7  8  1  0
  8  9  1  0
  8 10  1  0
 10 11  1  0
 11 12  1  0
 12 13  2  0
 12 14  1  0
 14 15  1  0
 15 16  2  0
 16 17  1  0
 17 18  2  0
 18 19  1  0
  4 20  2  0
 20 21  1  0
 21  2  1  0
 19 15  1  0
  1 22  1  0
  1 23  1  0
  1 24  1  0
  3 25  1  0
  7 26  1  0
  8 27  1  0
  9 28  1  0
  9 29  1  0
  9 30  1  0
 10 31  1  0
 10 32  1  0
 11 33  1  0
 14 34  1  0
 14 35  1  0
 16 36  1  0
 17 37  1  0
 20 38  1  0
M  END
>  <Energy>  (352) 
187.23965791068824

>  <compound_id>  (352) 
39877

>  <target_id>  (352) 
1

>  <reference_id>  (352) 
59

>  <inspiration_ids>  (352) 
[76, 59]

>  <energy_score>  (352) 
148.2624096495062

>  <distance_score>  (352) 
7.650335580046478

>  <path>  (352) 
/opt/xchem-fragalysis-2/maxwin/BulkDock/SCRATCH/511017/C39877-P59/C39877-P59.minimised.mol

>  <scratch_subdir>  (352) 
/opt/xchem-fragalysis-2/maxwin/BulkDock/SCRATCH/511017/C39877-P59

>  <fragmenstein_runtime>  (352) 
8.738092184066772

>  <fragmenstein_outcome>  (352) 
too moved

>  <fragmenstein_mode>  (352) 
expansion

>  <fragmenstein_error>  (352) 


$$$$
C39881-P76
     RDKit          3D

 44 47  0  0  0  0  0  0  0  0999 V2000
   13.1962   -4.4514   17.2084 C   0  0  0  0  0  0  0  0  0  0  0  0
   14.0381   -4.1386   18.2513 C   0  0  0  0  0  0  0  0  0  0  0  0
   14.8781   -2.6823   17.9523 S   0  0  0  0  0  0  0  0  0  0  0  0
   13.9670   -2.4249   16.5358 C   0  0  0  0  0  0  0  0  0  0  0  0
   13.9386   -1.1323   15.8514 C   0  0  0  0  0  0  0  0  0  0  0  0
   12.5608   -0.5389   15.7808 N   0  0  0  0  0  0  0  0  0  0  0  0
   12.8633    1.3769   15.9039 C   0  0  0  0  0  0  0  0  0  0  0  0
   12.6973    1.0691   14.1732 C   0  0  0  0  0  0  0  0  0  0  0  0
   11.4969   -0.2416   13.7945 C   0  0  0  0  0  0  0  0  0  0  0  0
   10.6144   -1.2816   15.0283 C   0  0  0  0  0  0  0  0  0  0  0  0
   10.9920   -1.2241   16.8384 C   0  0  0  0  0  0  0  0  0  0  0  0
    9.7026   -0.0205   18.3374 C   0  0  0  0  0  0  0  0  0  0  0  0
    9.7623    1.9415   18.1993 C   0  0  0  0  0  0  0  0  0  0  0  0
    8.7739    1.3758   19.0082 N   0  0  0  0  0  0  0  0  0  0  0  0
    7.5508    1.0715   19.9610 O   0  0  0  0  0  0  0  0  0  0  0  0
    6.9991   -0.6817   20.3202 C   0  0  0  0  0  0  0  0  0  0  0  0
    5.7355   -1.8871   21.3238 C   0  0  0  0  0  0  0  0  0  0  0  0
    5.0448   -2.1374   22.5585 C   0  0  0  0  0  0  0  0  0  0  0  0
    4.3011   -3.3238   22.4457 C   0  0  0  0  0  0  0  0  0  0  0  0
    4.5142   -3.8952   21.2783 N   0  0  0  0  0  0  0  0  0  0  0  0
    5.4361   -3.1027   20.6317 O   0  0  0  0  0  0  0  0  0  0  0  0
   11.3815    2.4239   17.0218 C   0  0  0  0  0  0  0  0  0  0  0  0
   13.2225   -3.5098   16.1792 C   0  0  0  0  0  0  0  0  0  0  0  0
   12.5543   -5.3049   17.1329 H   0  0  0  0  0  0  0  0  0  0  0  0
   14.2109   -4.6834   19.1689 H   0  0  0  0  0  0  0  0  0  0  0  0
   14.3073   -1.2557   14.8267 H   0  0  0  0  0  0  0  0  0  0  0  0
   14.6265   -0.4341   16.3413 H   0  0  0  0  0  0  0  0  0  0  0  0
   13.9018    1.5839   16.1995 H   0  0  0  0  0  0  0  0  0  0  0  0
   12.3880    1.9885   13.6603 H   0  0  0  0  0  0  0  0  0  0  0  0
   13.6649    0.7428   13.7734 H   0  0  0  0  0  0  0  0  0  0  0  0
   12.0548   -0.9594   13.1840 H   0  0  0  0  0  0  0  0  0  0  0  0
   10.7269    0.2392   13.1805 H   0  0  0  0  0  0  0  0  0  0  0  0
   10.8459   -2.3127   14.7286 H   0  0  0  0  0  0  0  0  0  0  0  0
    9.5352   -1.1661   14.8828 H   0  0  0  0  0  0  0  0  0  0  0  0
   11.3614   -2.2480   16.9925 H   0  0  0  0  0  0  0  0  0  0  0  0
    9.4238   -0.4104   19.4020 H   0  0  0  0  0  0  0  0  0  0  0  0
    8.5398   -0.2523   18.0455 H   0  0  0  0  0  0  0  0  0  0  0  0
    6.2520   -0.0454   20.7950 H   0  0  0  0  0  0  0  0  0  0  0  0
    6.8864   -0.8458   19.2554 H   0  0  0  0  0  0  0  0  0  0  0  0
    4.9898   -1.6151   23.4957 H   0  0  0  0  0  0  0  0  0  0  0  0
    3.6367   -3.7826   23.1647 H   0  0  0  0  0  0  0  0  0  0  0  0
   10.9750    3.1636   16.3049 H   0  0  0  0  0  0  0  0  0  0  0  0
   11.9884    3.0438   17.7120 H   0  0  0  0  0  0  0  0  0  0  0  0
   12.5944   -3.5335   15.2996 H   0  0  0  0  0  0  0  0  0  0  0  0
  1  2  2  0
  2  3  1  0
  3  4  1  0
  4  5  1  0
  5  6  1  0
  6  7  1  0
  7  8  1  0
  8  9  1  0
  9 10  1  0
 10 11  1  0
 11 12  1  0
 12 13  1  0
 13 14  2  3
 14 15  1  0
 15 16  1  0
 16 17  1  0
 17 18  2  0
 18 19  1  0
 19 20  2  0
 20 21  1  0
 13 22  1  0
  4 23  2  0
 23  1  1  0
 11  6  1  0
 21 17  1  0
 22  7  1  0
  1 24  1  0
  2 25  1  0
  5 26  1  0
  5 27  1  0
  7 28  1  0
  8 29  1  0
  8 30  1  0
  9 31  1  0
  9 32  1  0
 10 33  1  0
 10 34  1  0
 11 35  1  0
 12 36  1  0
 12 37  1  0
 16 38  1  0
 16 39  1  0
 18 40  1  0
 19 41  1  0
 22 42  1  0
 22 43  1  0
 23 44  1  0
M  END
>  <Energy>  (353) 
1212.7695251710254

>  <compound_id>  (353) 
39881

>  <target_id>  (353) 
1

>  <reference_id>  (353) 
76

>  <inspiration_ids>  (353) 
[76, 59]

>  <energy_score>  (353) 
1086.9861595981747

>  <distance_score>  (353) 
6.980958934662806

>  <path>  (353) 
/opt/xchem-fragalysis-2/maxwin/BulkDock/SCRATCH/511017/C39881-P76/C39881-P76.minimised.mol

>  <scratch_subdir>  (353) 
/opt/xchem-fragalysis-2/maxwin/BulkDock/SCRATCH/511017/C39881-P76

>  <fragmenstein_runtime>  (353) 
6.47375226020813

>  <fragmenstein_outcome>  (353) 
too moved

>  <fragmenstein_mode>  (353) 
expansion

>  <fragmenstein_error>  (353) 


$$$$
C39881-P59
     RDKit          3D

 44 47  0  0  0  0  0  0  0  0999 V2000
   13.0848   -3.3821   14.5786 C   0  0  0  0  0  0  0  0  0  0  0  0
   13.1669   -3.6925   15.9113 C   0  0  0  0  0  0  0  0  0  0  0  0
   12.5271   -2.4426   16.8562 S   0  0  0  0  0  0  0  0  0  0  0  0
   12.0354   -1.5304   15.4966 C   0  0  0  0  0  0  0  0  0  0  0  0
   11.4930   -0.1171   15.5753 C   0  0  0  0  0  0  0  0  0  0  0  0
   10.1638    0.0869   16.3314 N   0  0  0  0  0  0  0  0  0  0  0  0
    9.7454    1.5053   16.7141 C   0  0  0  0  0  0  0  0  0  0  0  0
    9.3134    2.4487   15.5698 C   0  0  0  0  0  0  0  0  0  0  0  0
    9.7711    1.8421   14.2818 C   0  0  0  0  0  0  0  0  0  0  0  0
    9.2175    0.3748   14.2197 C   0  0  0  0  0  0  0  0  0  0  0  0
    9.0548   -0.4124   15.5714 C   0  0  0  0  0  0  0  0  0  0  0  0
    7.7709   -0.2042   16.4661 C   0  0  0  0  0  0  0  0  0  0  0  0
    7.8878    0.2397   18.0418 C   0  0  0  0  0  0  0  0  0  0  0  0
    7.5398   -0.1778   19.2783 N   0  0  0  0  0  0  0  0  0  0  0  0
    6.8775   -1.2485   20.4218 O   0  0  0  0  0  0  0  0  0  0  0  0
    5.5535   -2.4970   20.6442 C   0  0  0  0  0  0  0  0  0  0  0  0
    5.4264   -3.5022   21.8122 C   0  0  0  0  0  0  0  0  0  0  0  0
    4.8212   -3.3712   23.0606 C   0  0  0  0  0  0  0  0  0  0  0  0
    4.7703   -4.6695   23.5742 C   0  0  0  0  0  0  0  0  0  0  0  0
    5.2317   -5.5580   22.6929 N   0  0  0  0  0  0  0  0  0  0  0  0
    5.6293   -4.8218   21.5792 O   0  0  0  0  0  0  0  0  0  0  0  0
    8.6940    1.5911   17.9188 C   0  0  0  0  0  0  0  0  0  0  0  0
   12.3680   -2.1880   14.3284 C   0  0  0  0  0  0  0  0  0  0  0  0
   13.5252   -3.9875   13.8143 H   0  0  0  0  0  0  0  0  0  0  0  0
   13.6142   -4.5641   16.3703 H   0  0  0  0  0  0  0  0  0  0  0  0
   11.5296    0.2161   14.5440 H   0  0  0  0  0  0  0  0  0  0  0  0
   12.2857    0.5189   15.9667 H   0  0  0  0  0  0  0  0  0  0  0  0
   10.6309    1.9904   17.0021 H   0  0  0  0  0  0  0  0  0  0  0  0
    9.7685    3.4383   15.7028 H   0  0  0  0  0  0  0  0  0  0  0  0
    8.2328    2.6159   15.5453 H   0  0  0  0  0  0  0  0  0  0  0  0
   10.8632    1.8992   14.2605 H   0  0  0  0  0  0  0  0  0  0  0  0
    9.5581    2.4506   13.4010 H   0  0  0  0  0  0  0  0  0  0  0  0
    8.3362    0.2266   13.6142 H   0  0  0  0  0  0  0  0  0  0  0  0
    9.9866   -0.1068   13.6291 H   0  0  0  0  0  0  0  0  0  0  0  0
    9.1458   -1.4851   15.3720 H   0  0  0  0  0  0  0  0  0  0  0  0
    6.9789   -0.8910   16.2171 H   0  0  0  0  0  0  0  0  0  0  0  0
    7.4242    0.7369   16.0950 H   0  0  0  0  0  0  0  0  0  0  0  0
    4.8437   -1.8709   21.1582 H   0  0  0  0  0  0  0  0  0  0  0  0
    5.1679   -2.9089   19.7021 H   0  0  0  0  0  0  0  0  0  0  0  0
    4.4842   -2.4545   23.5214 H   0  0  0  0  0  0  0  0  0  0  0  0
    4.4160   -5.0153   24.5339 H   0  0  0  0  0  0  0  0  0  0  0  0
    7.9609    2.3770   17.7000 H   0  0  0  0  0  0  0  0  0  0  0  0
    9.1095    1.9124   18.8674 H   0  0  0  0  0  0  0  0  0  0  0  0
   12.1805   -1.7828   13.3415 H   0  0  0  0  0  0  0  0  0  0  0  0
  1  2  2  0
  2  3  1  0
  3  4  1  0
  4  5  1  0
  5  6  1  0
  6  7  1  0
  7  8  1  0
  8  9  1  0
  9 10  1  0
 10 11  1  0
 11 12  1  0
 12 13  1  0
 13 14  2  3
 14 15  1  0
 15 16  1  0
 16 17  1  0
 17 18  2  0
 18 19  1  0
 19 20  2  0
 20 21  1  0
 13 22  1  0
  4 23  2  0
 23  1  1  0
 11  6  1  0
 21 17  1  0
 22  7  1  0
  1 24  1  0
  2 25  1  0
  5 26  1  0
  5 27  1  0
  7 28  1  0
  8 29  1  0
  8 30  1  0
  9 31  1  0
  9 32  1  0
 10 33  1  0
 10 34  1  0
 11 35  1  0
 12 36  1  0
 12 37  1  0
 16 38  1  0
 16 39  1  0
 18 40  1  0
 19 41  1  0
 22 42  1  0
 22 43  1  0
 23 44  1  0
M  END
>  <Energy>  (354) 
333.28832004116293

>  <compound_id>  (354) 
39881

>  <target_id>  (354) 
1

>  <reference_id>  (354) 
59

>  <inspiration_ids>  (354) 
[76, 59]

>  <energy_score>  (354) 
207.50495446831576

>  <distance_score>  (354) 
7.249068147475168

>  <path>  (354) 
/opt/xchem-fragalysis-2/maxwin/BulkDock/SCRATCH/511017/C39881-P59/C39881-P59.minimised.mol

>  <scratch_subdir>  (354) 
/opt/xchem-fragalysis-2/maxwin/BulkDock/SCRATCH/511017/C39881-P59

>  <fragmenstein_runtime>  (354) 
8.141053676605225

>  <fragmenstein_outcome>  (354) 
too moved

>  <fragmenstein_mode>  (354) 
expansion

>  <fragmenstein_error>  (354) 


$$$$
C39882-P76
     RDKit          3D

 41 42  0  0  0  0  0  0  0  0999 V2000
   -2.7595    0.5971   30.9189 C   0  0  0  0  0  0  0  0  0  0  0  0
   -2.1998   -0.7608   31.0732 C   0  0  0  0  0  0  0  0  0  0  0  0
   -1.4347   -1.4475   30.1682 C   0  0  0  0  0  0  0  0  0  0  0  0
   -0.8632   -2.6332   30.7350 C   0  0  0  0  0  0  0  0  0  0  0  0
    0.2285   -3.3833   30.1204 C   0  0  0  0  0  0  0  0  0  0  0  0
    0.1708   -4.5658   29.9696 O   0  0  0  0  0  0  0  0  0  0  0  0
    1.2411   -2.4472   29.7649 N   0  0  0  0  0  0  0  0  0  0  0  0
    2.4573   -2.6132   29.0360 C   0  0  0  0  0  0  0  0  0  0  0  0
    2.4120   -1.9229   27.6577 C   0  0  0  0  0  0  0  0  0  0  0  0
    1.7423   -0.5412   27.7483 C   0  0  0  0  0  0  0  0  0  0  0  0
    3.8684   -1.8067   27.1502 C   0  0  0  0  0  0  0  0  0  0  0  0
    4.1605   -1.8820   25.7255 N   0  0  0  0  0  0  0  0  0  0  0  0
    4.3496   -0.8467   24.7457 C   0  0  0  0  0  0  0  0  0  0  0  0
    4.2340    0.3340   24.8410 O   0  0  0  0  0  0  0  0  0  0  0  0
    4.9789   -1.6565   23.1938 C   0  0  0  0  0  0  0  0  0  0  0  0
    5.7528   -0.9381   21.5322 C   0  0  0  0  0  0  0  0  0  0  0  0
    5.7831    0.4911   21.0009 C   0  0  0  0  0  0  0  0  0  0  0  0
    6.7178    0.7060   19.9556 C   0  0  0  0  0  0  0  0  0  0  0  0
    7.4681   -0.3842   19.7895 N   0  0  0  0  0  0  0  0  0  0  0  0
    6.9084   -1.3780   20.6890 O   0  0  0  0  0  0  0  0  0  0  0  0
   -1.4089   -2.9102   31.9701 C   0  0  0  0  0  0  0  0  0  0  0  0
   -2.4352   -1.6488   32.5059 S   0  0  0  0  0  0  0  0  0  0  0  0
   -2.8789    0.8584   29.8633 H   0  0  0  0  0  0  0  0  0  0  0  0
   -2.0893    1.3314   31.3772 H   0  0  0  0  0  0  0  0  0  0  0  0
   -3.7350    0.6679   31.4058 H   0  0  0  0  0  0  0  0  0  0  0  0
   -1.1906   -1.0612   29.1850 H   0  0  0  0  0  0  0  0  0  0  0  0
    0.9871   -1.5341   30.1231 H   0  0  0  0  0  0  0  0  0  0  0  0
    2.6460   -3.6825   28.9347 H   0  0  0  0  0  0  0  0  0  0  0  0
    3.2491   -2.1829   29.6595 H   0  0  0  0  0  0  0  0  0  0  0  0
    1.8348   -2.5507   26.9760 H   0  0  0  0  0  0  0  0  0  0  0  0
    1.9538    0.0489   26.8540 H   0  0  0  0  0  0  0  0  0  0  0  0
    0.6568   -0.6328   27.8365 H   0  0  0  0  0  0  0  0  0  0  0  0
    2.1166    0.0289   28.6057 H   0  0  0  0  0  0  0  0  0  0  0  0
    4.2866   -0.8517   27.4936 H   0  0  0  0  0  0  0  0  0  0  0  0
    4.4839   -2.5771   27.6212 H   0  0  0  0  0  0  0  0  0  0  0  0
    4.4270   -2.7713   25.3206 H   0  0  0  0  0  0  0  0  0  0  0  0
    5.8038   -2.1954   23.6610 H   0  0  0  0  0  0  0  0  0  0  0  0
    4.0511   -2.1932   23.1136 H   0  0  0  0  0  0  0  0  0  0  0  0
    5.0514    1.0971   21.4272 H   0  0  0  0  0  0  0  0  0  0  0  0
    6.8933    1.5920   19.3678 H   0  0  0  0  0  0  0  0  0  0  0  0
   -1.1933   -3.7468   32.6226 H   0  0  0  0  0  0  0  0  0  0  0  0
  1  2  1  0
  2  3  2  0
  3  4  1  0
  4  5  1  0
  5  6  2  0
  5  7  1  0
  7  8  1  0
  8  9  1  0
  9 10  1  0
  9 11  1  0
 11 12  1  0
 12 13  1  0
 13 14  2  0
 13 15  1  0
 15 16  1  0
 16 17  2  0
 17 18  1  0
 18 19  2  0
 19 20  1  0
  4 21  2  0
 21 22  1  0
 22  2  1  0
 20 16  1  0
  1 23  1  0
  1 24  1  0
  1 25  1  0
  3 26  1  0
  7 27  1  0
  8 28  1  0
  8 29  1  0
  9 30  1  0
 10 31  1  0
 10 32  1  0
 10 33  1  0
 11 34  1  0
 11 35  1  0
 12 36  1  0
 15 37  1  0
 15 38  1  0
 17 39  1  0
 18 40  1  0
 21 41  1  0
M  END
>  <Energy>  (355) 
145.57816602429565

>  <compound_id>  (355) 
39882

>  <target_id>  (355) 
1

>  <reference_id>  (355) 
76

>  <inspiration_ids>  (355) 
[76, 59]

>  <energy_score>  (355) 
119.32897352556938

>  <distance_score>  (355) 
8.022170887436626

>  <path>  (355) 
/opt/xchem-fragalysis-2/maxwin/BulkDock/SCRATCH/511017/C39882-P76/C39882-P76.minimised.mol

>  <scratch_subdir>  (355) 
/opt/xchem-fragalysis-2/maxwin/BulkDock/SCRATCH/511017/C39882-P76

>  <fragmenstein_runtime>  (355) 
19.146259546279907

>  <fragmenstein_outcome>  (355) 
too moved

>  <fragmenstein_mode>  (355) 
expansion

>  <fragmenstein_error>  (355) 


$$$$
C39882-P59
     RDKit          3D

 41 42  0  0  0  0  0  0  0  0999 V2000
   -1.8030   -1.5892   29.7260 C   0  0  0  0  0  0  0  0  0  0  0  0
   -0.4623   -0.9655   29.6068 C   0  0  0  0  0  0  0  0  0  0  0  0
    0.4426   -1.1292   28.5827 C   0  0  0  0  0  0  0  0  0  0  0  0
    1.6071   -0.3132   28.7346 C   0  0  0  0  0  0  0  0  0  0  0  0
    2.6779   -0.1958   27.7358 C   0  0  0  0  0  0  0  0  0  0  0  0
    3.2430   -1.1757   27.3559 O   0  0  0  0  0  0  0  0  0  0  0  0
    2.7854    1.1609   27.3187 N   0  0  0  0  0  0  0  0  0  0  0  0
    3.5385    1.7658   26.2442 C   0  0  0  0  0  0  0  0  0  0  0  0
    3.0324    3.1803   25.9566 C   0  0  0  0  0  0  0  0  0  0  0  0
    1.5615    3.2363   25.5213 C   0  0  0  0  0  0  0  0  0  0  0  0
    3.9825    3.9498   24.9925 C   0  0  0  0  0  0  0  0  0  0  0  0
    4.3045    3.4312   23.6655 N   0  0  0  0  0  0  0  0  0  0  0  0
    5.3969    3.7603   22.7484 C   0  0  0  0  0  0  0  0  0  0  0  0
    6.3456    4.4806   22.8910 O   0  0  0  0  0  0  0  0  0  0  0  0
    5.1643    3.1084   21.3504 C   0  0  0  0  0  0  0  0  0  0  0  0
    6.4020    2.9556   20.4849 C   0  0  0  0  0  0  0  0  0  0  0  0
    7.6632    3.5098   20.4273 C   0  0  0  0  0  0  0  0  0  0  0  0
    8.3017    2.8647   19.3520 C   0  0  0  0  0  0  0  0  0  0  0  0
    7.5125    1.9606   18.7740 N   0  0  0  0  0  0  0  0  0  0  0  0
    6.3112    2.0332   19.4688 O   0  0  0  0  0  0  0  0  0  0  0  0
    1.5646    0.3820   29.9307 C   0  0  0  0  0  0  0  0  0  0  0  0
    0.1277    0.0896   30.8105 S   0  0  0  0  0  0  0  0  0  0  0  0
   -1.7229   -2.5823   30.1796 H   0  0  0  0  0  0  0  0  0  0  0  0
   -2.2594   -1.6997   28.7372 H   0  0  0  0  0  0  0  0  0  0  0  0
   -2.4803   -0.9847   30.3381 H   0  0  0  0  0  0  0  0  0  0  0  0
    0.2534   -1.7615   27.7239 H   0  0  0  0  0  0  0  0  0  0  0  0
    2.0896    1.7126   27.8084 H   0  0  0  0  0  0  0  0  0  0  0  0
    3.4761    1.1164   25.3663 H   0  0  0  0  0  0  0  0  0  0  0  0
    4.5862    1.7822   26.5635 H   0  0  0  0  0  0  0  0  0  0  0  0
    3.0727    3.7322   26.9077 H   0  0  0  0  0  0  0  0  0  0  0  0
    1.2152    4.2757   25.5053 H   0  0  0  0  0  0  0  0  0  0  0  0
    1.4419    2.8432   24.5090 H   0  0  0  0  0  0  0  0  0  0  0  0
    0.9027    2.6822   26.1954 H   0  0  0  0  0  0  0  0  0  0  0  0
    3.5789    4.9559   24.8253 H   0  0  0  0  0  0  0  0  0  0  0  0
    4.9468    4.0989   25.4943 H   0  0  0  0  0  0  0  0  0  0  0  0
    3.6277    2.8497   23.1806 H   0  0  0  0  0  0  0  0  0  0  0  0
    4.4499    3.7467   20.8167 H   0  0  0  0  0  0  0  0  0  0  0  0
    4.6935    2.1312   21.4872 H   0  0  0  0  0  0  0  0  0  0  0  0
    8.0684    4.2749   21.0731 H   0  0  0  0  0  0  0  0  0  0  0  0
    9.2996    3.0193   18.9679 H   0  0  0  0  0  0  0  0  0  0  0  0
    2.3091    1.0582   30.3293 H   0  0  0  0  0  0  0  0  0  0  0  0
  1  2  1  0
  2  3  2  0
  3  4  1  0
  4  5  1  0
  5  6  2  0
  5  7  1  0
  7  8  1  0
  8  9  1  0
  9 10  1  0
  9 11  1  0
 11 12  1  0
 12 13  1  0
 13 14  2  0
 13 15  1  0
 15 16  1  0
 16 17  2  0
 17 18  1  0
 18 19  2  0
 19 20  1  0
  4 21  2  0
 21 22  1  0
 22  2  1  0
 20 16  1  0
  1 23  1  0
  1 24  1  0
  1 25  1  0
  3 26  1  0
  7 27  1  0
  8 28  1  0
  8 29  1  0
  9 30  1  0
 10 31  1  0
 10 32  1  0
 10 33  1  0
 11 34  1  0
 11 35  1  0
 12 36  1  0
 15 37  1  0
 15 38  1  0
 17 39  1  0
 18 40  1  0
 21 41  1  0
M  END
>  <Energy>  (356) 
7.2153228719386684

>  <compound_id>  (356) 
39882

>  <target_id>  (356) 
1

>  <reference_id>  (356) 
59

>  <inspiration_ids>  (356) 
[76, 59]

>  <energy_score>  (356) 
-19.03386962679292

>  <distance_score>  (356) 
9.238369500173311

>  <path>  (356) 
/opt/xchem-fragalysis-2/maxwin/BulkDock/SCRATCH/511017/C39882-P59/C39882-P59.minimised.mol

>  <scratch_subdir>  (356) 
/opt/xchem-fragalysis-2/maxwin/BulkDock/SCRATCH/511017/C39882-P59

>  <fragmenstein_runtime>  (356) 
16.697183847427368

>  <fragmenstein_outcome>  (356) 
too moved

>  <fragmenstein_mode>  (356) 
expansion

>  <fragmenstein_error>  (356) 


$$$$
C39887-P76
     RDKit          3D

 33 34  0  0  0  0  0  0  0  0999 V2000
   -0.5508   -0.7920   31.8548 C   0  0  0  0  0  0  0  0  0  0  0  0
    0.3751   -1.1971   30.7521 C   0  0  0  0  0  0  0  0  0  0  0  0
    0.0657   -1.8059   29.5542 C   0  0  0  0  0  0  0  0  0  0  0  0
    1.2251   -2.0094   28.7366 C   0  0  0  0  0  0  0  0  0  0  0  0
    2.3885   -1.5547   29.3254 C   0  0  0  0  0  0  0  0  0  0  0  0
    3.6697   -1.5739   28.7988 N   0  0  0  0  0  0  0  0  0  0  0  0
    4.9781   -1.0597   29.3648 C   0  0  0  0  0  0  0  0  0  0  0  0
    5.2164   -0.5951   30.4183 O   0  0  0  0  0  0  0  0  0  0  0  0
    5.8765   -1.2556   28.1609 N   0  0  0  0  0  0  0  0  0  0  0  0
    7.2778   -0.8349   27.9229 C   0  0  0  0  0  0  0  0  0  0  0  0
    7.2900    0.6879   27.7830 C   0  0  0  0  0  0  0  0  0  0  0  0
    7.9171   -1.5689   26.7172 C   0  0  0  0  0  0  0  0  0  0  0  0
    9.2690   -1.1303   26.2132 C   0  0  0  0  0  0  0  0  0  0  0  0
    9.7936    0.0239   25.6690 C   0  0  0  0  0  0  0  0  0  0  0  0
   11.0969   -0.3241   25.2639 C   0  0  0  0  0  0  0  0  0  0  0  0
   11.3763   -1.5961   25.5439 N   0  0  0  0  0  0  0  0  0  0  0  0
   10.2287   -2.1037   26.1358 O   0  0  0  0  0  0  0  0  0  0  0  0
    2.0680   -0.9045   30.8704 S   0  0  0  0  0  0  0  0  0  0  0  0
   -0.2744   -1.2861   32.7919 H   0  0  0  0  0  0  0  0  0  0  0  0
   -0.5188    0.2918   32.0058 H   0  0  0  0  0  0  0  0  0  0  0  0
   -1.5834   -1.0699   31.6189 H   0  0  0  0  0  0  0  0  0  0  0  0
   -0.9397   -2.0765   29.2539 H   0  0  0  0  0  0  0  0  0  0  0  0
    1.1950   -2.4470   27.7455 H   0  0  0  0  0  0  0  0  0  0  0  0
    3.8344   -1.9807   27.8954 H   0  0  0  0  0  0  0  0  0  0  0  0
    5.3738   -1.7611   27.4466 H   0  0  0  0  0  0  0  0  0  0  0  0
    7.8299   -1.0886   28.8358 H   0  0  0  0  0  0  0  0  0  0  0  0
    6.7581    1.1639   28.6145 H   0  0  0  0  0  0  0  0  0  0  0  0
    8.3088    1.0843   27.7920 H   0  0  0  0  0  0  0  0  0  0  0  0
    6.7958    1.0027   26.8582 H   0  0  0  0  0  0  0  0  0  0  0  0
    7.9792   -2.6341   26.9745 H   0  0  0  0  0  0  0  0  0  0  0  0
    7.2243   -1.5091   25.8752 H   0  0  0  0  0  0  0  0  0  0  0  0
    9.2960    0.9731   25.5464 H   0  0  0  0  0  0  0  0  0  0  0  0
   11.8472    0.2798   24.7740 H   0  0  0  0  0  0  0  0  0  0  0  0
  1  2  1  0
  2  3  2  0
  3  4  1  0
  4  5  2  0
  5  6  1  0
  6  7  1  0
  7  8  2  0
  7  9  1  0
  9 10  1  0
 10 11  1  0
 10 12  1  0
 12 13  1  0
 13 14  2  0
 14 15  1  0
 15 16  2  0
 16 17  1  0
  5 18  1  0
 18  2  1  0
 17 13  1  0
  1 19  1  0
  1 20  1  0
  1 21  1  0
  3 22  1  0
  4 23  1  0
  6 24  1  0
  9 25  1  0
 10 26  1  0
 11 27  1  0
 11 28  1  0
 11 29  1  0
 12 30  1  0
 12 31  1  0
 14 32  1  0
 15 33  1  0
M  END
>  <Energy>  (357) 
-23.85396429534779

>  <compound_id>  (357) 
39887

>  <target_id>  (357) 
1

>  <reference_id>  (357) 
76

>  <inspiration_ids>  (357) 
[76, 59]

>  <energy_score>  (357) 
-38.40355787824427

>  <distance_score>  (357) 
9.153947442376037

>  <path>  (357) 
/opt/xchem-fragalysis-2/maxwin/BulkDock/SCRATCH/511017/C39887-P76/C39887-P76.minimised.mol

>  <scratch_subdir>  (357) 
/opt/xchem-fragalysis-2/maxwin/BulkDock/SCRATCH/511017/C39887-P76

>  <fragmenstein_runtime>  (357) 
10.094477415084839

>  <fragmenstein_outcome>  (357) 
too moved

>  <fragmenstein_mode>  (357) 
expansion

>  <fragmenstein_error>  (357) 


$$$$
C39887-P59
     RDKit          3D

 33 34  0  0  0  0  0  0  0  0999 V2000
    1.6636   -3.5474   29.3577 C   0  0  0  0  0  0  0  0  0  0  0  0
    2.6656   -3.0652   28.3524 C   0  0  0  0  0  0  0  0  0  0  0  0
    2.9397   -1.7564   28.0157 C   0  0  0  0  0  0  0  0  0  0  0  0
    3.8644   -1.6644   26.9266 C   0  0  0  0  0  0  0  0  0  0  0  0
    4.2781   -2.8963   26.4531 C   0  0  0  0  0  0  0  0  0  0  0  0
    4.9954   -3.1982   25.3036 N   0  0  0  0  0  0  0  0  0  0  0  0
    5.2153   -2.3928   24.0386 C   0  0  0  0  0  0  0  0  0  0  0  0
    4.8429   -1.3097   23.7491 O   0  0  0  0  0  0  0  0  0  0  0  0
    6.1458   -3.4660   23.0976 N   0  0  0  0  0  0  0  0  0  0  0  0
    6.9228   -3.2473   21.5005 C   0  0  0  0  0  0  0  0  0  0  0  0
    5.6610   -2.9142   20.6371 C   0  0  0  0  0  0  0  0  0  0  0  0
    8.2028   -4.3478   20.6535 C   0  0  0  0  0  0  0  0  0  0  0  0
   10.0987   -5.0424   21.0483 C   0  0  0  0  0  0  0  0  0  0  0  0
   11.3396   -5.6086   20.6788 C   0  0  0  0  0  0  0  0  0  0  0  0
   12.3403   -5.5110   21.6627 C   0  0  0  0  0  0  0  0  0  0  0  0
   12.0266   -4.5363   22.4858 N   0  0  0  0  0  0  0  0  0  0  0  0
   10.8997   -3.9670   21.9139 O   0  0  0  0  0  0  0  0  0  0  0  0
    3.6392   -4.1544   27.4180 S   0  0  0  0  0  0  0  0  0  0  0  0
    1.9732   -4.4973   29.8049 H   0  0  0  0  0  0  0  0  0  0  0  0
    1.5466   -2.8181   30.1659 H   0  0  0  0  0  0  0  0  0  0  0  0
    0.6901   -3.6885   28.8778 H   0  0  0  0  0  0  0  0  0  0  0  0
    2.4612   -0.9004   28.4765 H   0  0  0  0  0  0  0  0  0  0  0  0
    4.1580   -0.7312   26.4580 H   0  0  0  0  0  0  0  0  0  0  0  0
    5.3843   -4.1191   25.1843 H   0  0  0  0  0  0  0  0  0  0  0  0
    6.3791   -4.2876   23.6476 H   0  0  0  0  0  0  0  0  0  0  0  0
    7.4442   -2.3957   21.3780 H   0  0  0  0  0  0  0  0  0  0  0  0
    5.5174   -3.4142   19.6845 H   0  0  0  0  0  0  0  0  0  0  0  0
    4.7698   -3.2495   21.0293 H   0  0  0  0  0  0  0  0  0  0  0  0
    5.6619   -1.8768   20.7250 H   0  0  0  0  0  0  0  0  0  0  0  0
    7.3722   -4.8112   20.0471 H   0  0  0  0  0  0  0  0  0  0  0  0
    8.6615   -3.8912   19.9015 H   0  0  0  0  0  0  0  0  0  0  0  0
   11.7184   -5.4982   19.6920 H   0  0  0  0  0  0  0  0  0  0  0  0
   13.3467   -5.9037   21.6739 H   0  0  0  0  0  0  0  0  0  0  0  0
  1  2  1  0
  2  3  2  0
  3  4  1  0
  4  5  2  0
  5  6  1  0
  6  7  1  0
  7  8  2  0
  7  9  1  0
  9 10  1  0
 10 11  1  0
 10 12  1  0
 12 13  1  0
 13 14  2  0
 14 15  1  0
 15 16  2  0
 16 17  1  0
  5 18  1  0
 18  2  1  0
 17 13  1  0
  1 19  1  0
  1 20  1  0
  1 21  1  0
  3 22  1  0
  4 23  1  0
  6 24  1  0
  9 25  1  0
 10 26  1  0
 11 27  1  0
 11 28  1  0
 11 29  1  0
 12 30  1  0
 12 31  1  0
 14 32  1  0
 15 33  1  0
M  END
>  <Energy>  (358) 
260.52990768101716

>  <compound_id>  (358) 
39887

>  <target_id>  (358) 
1

>  <reference_id>  (358) 
59

>  <inspiration_ids>  (358) 
[76, 59]

>  <energy_score>  (358) 
245.98031409812677

>  <distance_score>  (358) 
9.401779467020667

>  <path>  (358) 
/opt/xchem-fragalysis-2/maxwin/BulkDock/SCRATCH/511017/C39887-P59/C39887-P59.minimised.mol

>  <scratch_subdir>  (358) 
/opt/xchem-fragalysis-2/maxwin/BulkDock/SCRATCH/511017/C39887-P59

>  <fragmenstein_runtime>  (358) 
14.357634544372559

>  <fragmenstein_outcome>  (358) 
too moved

>  <fragmenstein_mode>  (358) 
expansion

>  <fragmenstein_error>  (358) 


$$$$
C39888-P76
     RDKit          3D

 34 35  0  0  0  0  0  0  0  0999 V2000
   -4.1761   -1.3783   22.9721 C   0  0  0  0  0  0  0  0  0  0  0  0
   -3.3187   -2.5131   22.5034 C   0  0  0  0  0  0  0  0  0  0  0  0
   -3.0799   -3.6924   23.1586 C   0  0  0  0  0  0  0  0  0  0  0  0
   -2.1302   -4.5372   22.5235 C   0  0  0  0  0  0  0  0  0  0  0  0
   -1.6590   -3.9927   21.3453 C   0  0  0  0  0  0  0  0  0  0  0  0
   -0.7591   -4.6518   20.3019 C   0  0  0  0  0  0  0  0  0  0  0  0
    0.7858   -4.2695   20.2140 C   0  0  0  0  0  0  0  0  0  0  0  0
    1.7344   -5.3240   20.9168 C   0  0  0  0  0  0  0  0  0  0  0  0
    1.0825   -6.3098   21.2215 O   0  0  0  0  0  0  0  0  0  0  0  0
    3.5594   -4.9988   21.3462 N   0  0  0  0  0  0  0  0  0  0  0  0
    4.9902   -6.2466   22.6842 C   0  0  0  0  0  0  0  0  0  0  0  0
    6.6257   -5.2865   23.3030 C   0  0  0  0  0  0  0  0  0  0  0  0
    6.6523   -3.5685   24.0399 C   0  0  0  0  0  0  0  0  0  0  0  0
    5.7782   -2.3438   24.3769 C   0  0  0  0  0  0  0  0  0  0  0  0
    6.4404   -1.6771   25.5756 C   0  0  0  0  0  0  0  0  0  0  0  0
    7.6726   -2.1176   25.7877 N   0  0  0  0  0  0  0  0  0  0  0  0
    7.7760   -3.2669   25.0176 O   0  0  0  0  0  0  0  0  0  0  0  0
   -2.4618   -2.4966   21.0269 S   0  0  0  0  0  0  0  0  0  0  0  0
   -3.5675   -0.4956   23.1894 H   0  0  0  0  0  0  0  0  0  0  0  0
   -4.7203   -1.6473   23.8834 H   0  0  0  0  0  0  0  0  0  0  0  0
   -4.9132   -1.1134   22.2072 H   0  0  0  0  0  0  0  0  0  0  0  0
   -3.5082   -3.8657   24.1176 H   0  0  0  0  0  0  0  0  0  0  0  0
   -1.7961   -5.4968   22.9007 H   0  0  0  0  0  0  0  0  0  0  0  0
   -0.9053   -5.7367   20.3574 H   0  0  0  0  0  0  0  0  0  0  0  0
   -1.1875   -4.3776   19.3253 H   0  0  0  0  0  0  0  0  0  0  0  0
    0.9558   -4.2979   19.1377 H   0  0  0  0  0  0  0  0  0  0  0  0
    0.7951   -3.3513   20.7677 H   0  0  0  0  0  0  0  0  0  0  0  0
    3.8335   -4.0741   21.0484 H   0  0  0  0  0  0  0  0  0  0  0  0
    4.6007   -6.8319   23.5864 H   0  0  0  0  0  0  0  0  0  0  0  0
    5.5939   -7.0849   22.2651 H   0  0  0  0  0  0  0  0  0  0  0  0
    7.3389   -5.1126   22.4923 H   0  0  0  0  0  0  0  0  0  0  0  0
    7.2118   -6.1210   23.6862 H   0  0  0  0  0  0  0  0  0  0  0  0
    4.7585   -2.0836   24.1048 H   0  0  0  0  0  0  0  0  0  0  0  0
    6.0069   -0.9273   26.2250 H   0  0  0  0  0  0  0  0  0  0  0  0
  1  2  1  0
  2  3  2  0
  3  4  1  0
  4  5  2  0
  5  6  1  0
  6  7  1  0
  7  8  1  0
  8  9  2  0
  8 10  1  0
 10 11  1  0
 11 12  1  0
 12 13  1  0
 13 14  2  0
 14 15  1  0
 15 16  2  0
 16 17  1  0
  5 18  1  0
 18  2  1  0
 17 13  1  0
  1 19  1  0
  1 20  1  0
  1 21  1  0
  3 22  1  0
  4 23  1  0
  6 24  1  0
  6 25  1  0
  7 26  1  0
  7 27  1  0
 10 28  1  0
 11 29  1  0
 11 30  1  0
 12 31  1  0
 12 32  1  0
 14 33  1  0
 15 34  1  0
M  END
>  <Energy>  (359) 
535.3857030260192

>  <compound_id>  (359) 
39888

>  <target_id>  (359) 
1

>  <reference_id>  (359) 
76

>  <inspiration_ids>  (359) 
[76, 59]

>  <energy_score>  (359) 
513.9367092860689

>  <distance_score>  (359) 
12.187653838240486

>  <path>  (359) 
/opt/xchem-fragalysis-2/maxwin/BulkDock/SCRATCH/511017/C39888-P76/C39888-P76.minimised.mol

>  <scratch_subdir>  (359) 
/opt/xchem-fragalysis-2/maxwin/BulkDock/SCRATCH/511017/C39888-P76

>  <fragmenstein_runtime>  (359) 
9.647376775741577

>  <fragmenstein_outcome>  (359) 
too moved

>  <fragmenstein_mode>  (359) 
expansion

>  <fragmenstein_error>  (359) 


$$$$
C39888-P59
     RDKit          3D

 34 35  0  0  0  0  0  0  0  0999 V2000
   -4.0423    0.8409   35.0394 C   0  0  0  0  0  0  0  0  0  0  0  0
   -3.5705   -0.1576   34.0406 C   0  0  0  0  0  0  0  0  0  0  0  0
   -4.3274   -1.0407   33.3051 C   0  0  0  0  0  0  0  0  0  0  0  0
   -3.5252   -1.8207   32.4266 C   0  0  0  0  0  0  0  0  0  0  0  0
   -2.1778   -1.5220   32.5106 C   0  0  0  0  0  0  0  0  0  0  0  0
   -1.0413   -2.1826   31.7642 C   0  0  0  0  0  0  0  0  0  0  0  0
   -0.1644   -1.2263   30.9435 C   0  0  0  0  0  0  0  0  0  0  0  0
    0.7685   -1.9729   29.9654 C   0  0  0  0  0  0  0  0  0  0  0  0
    0.7069   -3.1642   29.8649 O   0  0  0  0  0  0  0  0  0  0  0  0
    1.5472   -1.0054   29.2311 N   0  0  0  0  0  0  0  0  0  0  0  0
    2.4221   -1.1615   28.0829 C   0  0  0  0  0  0  0  0  0  0  0  0
    3.9251   -0.9274   28.3272 C   0  0  0  0  0  0  0  0  0  0  0  0
    4.5787   -0.4283   27.0754 C   0  0  0  0  0  0  0  0  0  0  0  0
    4.7519   -0.9260   25.8061 C   0  0  0  0  0  0  0  0  0  0  0  0
    5.0139    0.2283   25.0537 C   0  0  0  0  0  0  0  0  0  0  0  0
    5.2680    1.2906   25.8120 N   0  0  0  0  0  0  0  0  0  0  0  0
    4.9975    0.8693   27.0998 O   0  0  0  0  0  0  0  0  0  0  0  0
   -1.9010   -0.3124   33.6903 S   0  0  0  0  0  0  0  0  0  0  0  0
   -3.7193    1.8502   34.7632 H   0  0  0  0  0  0  0  0  0  0  0  0
   -5.1356    0.8466   35.1021 H   0  0  0  0  0  0  0  0  0  0  0  0
   -3.6497    0.6078   36.0345 H   0  0  0  0  0  0  0  0  0  0  0  0
   -5.4056   -1.1191   33.3850 H   0  0  0  0  0  0  0  0  0  0  0  0
   -3.9224   -2.5769   31.7642 H   0  0  0  0  0  0  0  0  0  0  0  0
   -0.4147   -2.7314   32.4792 H   0  0  0  0  0  0  0  0  0  0  0  0
   -1.4735   -2.9422   31.0989 H   0  0  0  0  0  0  0  0  0  0  0  0
   -0.8017   -0.5565   30.3524 H   0  0  0  0  0  0  0  0  0  0  0  0
    0.4520   -0.6132   31.6113 H   0  0  0  0  0  0  0  0  0  0  0  0
    1.2841   -0.0726   29.5309 H   0  0  0  0  0  0  0  0  0  0  0  0
    2.0373   -0.4563   27.3371 H   0  0  0  0  0  0  0  0  0  0  0  0
    2.2746   -2.1732   27.6895 H   0  0  0  0  0  0  0  0  0  0  0  0
    4.0613   -0.1916   29.1290 H   0  0  0  0  0  0  0  0  0  0  0  0
    4.4017   -1.8558   28.6606 H   0  0  0  0  0  0  0  0  0  0  0  0
    4.5423   -1.9216   25.4498 H   0  0  0  0  0  0  0  0  0  0  0  0
    5.0340    0.3543   23.9879 H   0  0  0  0  0  0  0  0  0  0  0  0
  1  2  1  0
  2  3  2  0
  3  4  1  0
  4  5  2  0
  5  6  1  0
  6  7  1  0
  7  8  1  0
  8  9  2  0
  8 10  1  0
 10 11  1  0
 11 12  1  0
 12 13  1  0
 13 14  2  0
 14 15  1  0
 15 16  2  0
 16 17  1  0
  5 18  1  0
 18  2  1  0
 17 13  1  0
  1 19  1  0
  1 20  1  0
  1 21  1  0
  3 22  1  0
  4 23  1  0
  6 24  1  0
  6 25  1  0
  7 26  1  0
  7 27  1  0
 10 28  1  0
 11 29  1  0
 11 30  1  0
 12 31  1  0
 12 32  1  0
 14 33  1  0
 15 34  1  0
M  END
>  <Energy>  (360) 
-1.6884842109838134

>  <compound_id>  (360) 
39888

>  <target_id>  (360) 
1

>  <reference_id>  (360) 
59

>  <inspiration_ids>  (360) 
[76, 59]

>  <energy_score>  (360) 
-23.137477950936955

>  <distance_score>  (360) 
8.98594654621152

>  <path>  (360) 
/opt/xchem-fragalysis-2/maxwin/BulkDock/SCRATCH/511017/C39888-P59/C39888-P59.minimised.mol

>  <scratch_subdir>  (360) 
/opt/xchem-fragalysis-2/maxwin/BulkDock/SCRATCH/511017/C39888-P59

>  <fragmenstein_runtime>  (360) 
13.069832801818848

>  <fragmenstein_outcome>  (360) 
too moved

>  <fragmenstein_mode>  (360) 
expansion

>  <fragmenstein_error>  (360) 


$$$$
C39889-P76
     RDKit          3D

 44 45  0  0  0  0  0  0  0  0999 V2000
    0.3804    0.0557   30.3908 C   0  0  0  0  0  0  0  0  0  0  0  0
    1.5276    0.2932   29.4562 C   0  0  0  0  0  0  0  0  0  0  0  0
    2.6612    1.0554   29.6412 C   0  0  0  0  0  0  0  0  0  0  0  0
    3.5082    1.0963   28.4753 C   0  0  0  0  0  0  0  0  0  0  0  0
    3.0158    0.3647   27.4131 C   0  0  0  0  0  0  0  0  0  0  0  0
    3.4153    0.2262   25.9434 C   0  0  0  0  0  0  0  0  0  0  0  0
    4.7837    0.6043   25.3213 C   0  0  0  0  0  0  0  0  0  0  0  0
    5.8204    0.9492   25.8595 O   0  0  0  0  0  0  0  0  0  0  0  0
    4.3903    0.3973   23.6316 N   0  0  0  0  0  0  0  0  0  0  0  0
    4.7188   -1.3743   23.1475 C   0  0  0  0  0  0  0  0  0  0  0  0
    5.5141    0.8415   21.8339 C   0  0  0  0  0  0  0  0  0  0  0  0
    7.2898    1.6334   21.0563 C   0  0  0  0  0  0  0  0  0  0  0  0
    8.8323    1.8029   21.6369 C   0  0  0  0  0  0  0  0  0  0  0  0
    7.3558    2.8542   20.1981 N   0  0  0  0  0  0  0  0  0  0  0  0
    7.5715    4.2375   20.5362 C   0  0  0  0  0  0  0  0  0  0  0  0
    7.6737    4.7749   21.6016 O   0  0  0  0  0  0  0  0  0  0  0  0
    7.7731    5.0522   19.2493 C   0  0  0  0  0  0  0  0  0  0  0  0
    8.8111    4.4359   18.3681 C   0  0  0  0  0  0  0  0  0  0  0  0
   10.1859    4.4373   18.3292 C   0  0  0  0  0  0  0  0  0  0  0  0
   10.4953    3.7031   17.1720 C   0  0  0  0  0  0  0  0  0  0  0  0
    9.3999    3.2271   16.5775 N   0  0  0  0  0  0  0  0  0  0  0  0
    8.3404    3.6853   17.3307 O   0  0  0  0  0  0  0  0  0  0  0  0
    1.5415   -0.4349   27.9104 S   0  0  0  0  0  0  0  0  0  0  0  0
   -0.5568    0.4093   29.9489 H   0  0  0  0  0  0  0  0  0  0  0  0
    0.5323    0.5904   31.3341 H   0  0  0  0  0  0  0  0  0  0  0  0
    0.2826   -1.0106   30.6189 H   0  0  0  0  0  0  0  0  0  0  0  0
    2.8779    1.5945   30.5552 H   0  0  0  0  0  0  0  0  0  0  0  0
    4.4221    1.6767   28.4113 H   0  0  0  0  0  0  0  0  0  0  0  0
    2.7333    0.9151   25.4334 H   0  0  0  0  0  0  0  0  0  0  0  0
    3.2048   -0.8028   25.6281 H   0  0  0  0  0  0  0  0  0  0  0  0
    5.3249   -1.7459   23.9902 H   0  0  0  0  0  0  0  0  0  0  0  0
    5.2280   -1.6200   22.2143 H   0  0  0  0  0  0  0  0  0  0  0  0
    3.7974   -1.9047   23.4289 H   0  0  0  0  0  0  0  0  0  0  0  0
    5.7814    1.8474   21.8272 H   0  0  0  0  0  0  0  0  0  0  0  0
    5.6160   -0.0455   21.2355 H   0  0  0  0  0  0  0  0  0  0  0  0
    7.4439    0.9051   20.2141 H   0  0  0  0  0  0  0  0  0  0  0  0
    8.8628    2.2693   22.6265 H   0  0  0  0  0  0  0  0  0  0  0  0
    9.4355    2.4547   20.9883 H   0  0  0  0  0  0  0  0  0  0  0  0
    9.4192    0.8792   21.6147 H   0  0  0  0  0  0  0  0  0  0  0  0
    7.4061    2.7472   19.1836 H   0  0  0  0  0  0  0  0  0  0  0  0
    6.8098    5.1286   18.7330 H   0  0  0  0  0  0  0  0  0  0  0  0
    8.0827    6.0672   19.5230 H   0  0  0  0  0  0  0  0  0  0  0  0
   10.8593    4.9376   19.0091 H   0  0  0  0  0  0  0  0  0  0  0  0
   11.4615    3.4960   16.7330 H   0  0  0  0  0  0  0  0  0  0  0  0
  1  2  1  0
  2  3  2  0
  3  4  1  0
  4  5  2  0
  5  6  1  0
  6  7  1  0
  7  8  2  0
  7  9  1  0
  9 10  1  0
  9 11  1  0
 11 12  1  0
 12 13  1  0
 12 14  1  0
 14 15  1  0
 15 16  2  0
 15 17  1  0
 17 18  1  0
 18 19  2  0
 19 20  1  0
 20 21  2  0
 21 22  1  0
  5 23  1  0
 23  2  1  0
 22 18  1  0
  1 24  1  0
  1 25  1  0
  1 26  1  0
  3 27  1  0
  4 28  1  0
  6 29  1  0
  6 30  1  0
 10 31  1  0
 10 32  1  0
 10 33  1  0
 11 34  1  0
 11 35  1  0
 12 36  1  0
 13 37  1  0
 13 38  1  0
 13 39  1  0
 14 40  1  0
 17 41  1  0
 17 42  1  0
 19 43  1  0
 20 44  1  0
M  END
>  <Energy>  (361) 
513.81264069231611

>  <compound_id>  (361) 
39889

>  <target_id>  (361) 
1

>  <reference_id>  (361) 
76

>  <inspiration_ids>  (361) 
[76, 59]

>  <energy_score>  (361) 
442.5129262604938

>  <distance_score>  (361) 
9.131961848352958

>  <path>  (361) 
/opt/xchem-fragalysis-2/maxwin/BulkDock/SCRATCH/511017/C39889-P76/C39889-P76.minimised.mol

>  <scratch_subdir>  (361) 
/opt/xchem-fragalysis-2/maxwin/BulkDock/SCRATCH/511017/C39889-P76

>  <fragmenstein_runtime>  (361) 
14.325958728790283

>  <fragmenstein_outcome>  (361) 
too moved

>  <fragmenstein_mode>  (361) 
expansion

>  <fragmenstein_error>  (361) 


$$$$
C39889-P59
     RDKit          3D

 44 45  0  0  0  0  0  0  0  0999 V2000
    1.0784   -2.0125   29.5526 C   0  0  0  0  0  0  0  0  0  0  0  0
    2.0824   -1.6413   28.5029 C   0  0  0  0  0  0  0  0  0  0  0  0
    2.3780   -0.3867   28.0197 C   0  0  0  0  0  0  0  0  0  0  0  0
    3.3274   -0.4209   26.9440 C   0  0  0  0  0  0  0  0  0  0  0  0
    3.7136   -1.7029   26.5731 C   0  0  0  0  0  0  0  0  0  0  0  0
    4.5862   -2.2086   25.3578 C   0  0  0  0  0  0  0  0  0  0  0  0
    4.0777   -1.9175   23.7838 C   0  0  0  0  0  0  0  0  0  0  0  0
    3.0250   -2.2626   23.3527 O   0  0  0  0  0  0  0  0  0  0  0  0
    5.0937   -1.2318   23.1896 N   0  0  0  0  0  0  0  0  0  0  0  0
    4.8987    0.3838   23.4583 C   0  0  0  0  0  0  0  0  0  0  0  0
    5.3413   -0.6551   21.3264 C   0  0  0  0  0  0  0  0  0  0  0  0
    6.7996   -0.0658   19.8872 C   0  0  0  0  0  0  0  0  0  0  0  0
    7.9529    1.2638   19.8090 C   0  0  0  0  0  0  0  0  0  0  0  0
    6.9643   -0.2208   18.3014 N   0  0  0  0  0  0  0  0  0  0  0  0
    8.0665    0.2939   17.3429 C   0  0  0  0  0  0  0  0  0  0  0  0
    9.1079    0.8673   17.5781 O   0  0  0  0  0  0  0  0  0  0  0  0
    7.8650   -0.0687   15.8493 C   0  0  0  0  0  0  0  0  0  0  0  0
    9.2342   -0.4256   15.3165 C   0  0  0  0  0  0  0  0  0  0  0  0
    9.9051   -1.5925   15.0387 C   0  0  0  0  0  0  0  0  0  0  0  0
   11.2053   -1.1887   14.6885 C   0  0  0  0  0  0  0  0  0  0  0  0
   11.3394    0.1364   14.7208 N   0  0  0  0  0  0  0  0  0  0  0  0
   10.0895    0.6195   15.0830 O   0  0  0  0  0  0  0  0  0  0  0  0
    3.0609   -2.8328   27.7366 S   0  0  0  0  0  0  0  0  0  0  0  0
    0.5650   -1.1240   29.9338 H   0  0  0  0  0  0  0  0  0  0  0  0
    1.5693   -2.5088   30.3959 H   0  0  0  0  0  0  0  0  0  0  0  0
    0.3234   -2.6880   29.1373 H   0  0  0  0  0  0  0  0  0  0  0  0
    1.9136    0.5210   28.3859 H   0  0  0  0  0  0  0  0  0  0  0  0
    3.6510    0.4682   26.4201 H   0  0  0  0  0  0  0  0  0  0  0  0
    4.7047   -3.2968   25.4319 H   0  0  0  0  0  0  0  0  0  0  0  0
    5.5823   -1.7735   25.4993 H   0  0  0  0  0  0  0  0  0  0  0  0
    4.1519    0.4363   24.2832 H   0  0  0  0  0  0  0  0  0  0  0  0
    4.6343    1.2242   22.8170 H   0  0  0  0  0  0  0  0  0  0  0  0
    5.6540    0.6659   24.1845 H   0  0  0  0  0  0  0  0  0  0  0  0
    5.4261   -1.7247   20.9745 H   0  0  0  0  0  0  0  0  0  0  0  0
    4.5587    0.1110   21.2897 H   0  0  0  0  0  0  0  0  0  0  0  0
    6.0587    0.5388   19.5613 H   0  0  0  0  0  0  0  0  0  0  0  0
    8.7462    0.6446   19.4712 H   0  0  0  0  0  0  0  0  0  0  0  0
    8.5204    1.6099   20.6602 H   0  0  0  0  0  0  0  0  0  0  0  0
    7.7004    2.0750   19.1224 H   0  0  0  0  0  0  0  0  0  0  0  0
    6.1877   -0.5795   17.7591 H   0  0  0  0  0  0  0  0  0  0  0  0
    7.1681   -0.8930   15.7097 H   0  0  0  0  0  0  0  0  0  0  0  0
    7.4829    0.8094   15.3193 H   0  0  0  0  0  0  0  0  0  0  0  0
    9.5124   -2.5926   15.0279 H   0  0  0  0  0  0  0  0  0  0  0  0
   12.0476   -1.7949   14.3891 H   0  0  0  0  0  0  0  0  0  0  0  0
  1  2  1  0
  2  3  2  0
  3  4  1  0
  4  5  2  0
  5  6  1  0
  6  7  1  0
  7  8  2  0
  7  9  1  0
  9 10  1  0
  9 11  1  0
 11 12  1  0
 12 13  1  0
 12 14  1  0
 14 15  1  0
 15 16  2  0
 15 17  1  0
 17 18  1  0
 18 19  2  0
 19 20  1  0
 20 21  2  0
 21 22  1  0
  5 23  1  0
 23  2  1  0
 22 18  1  0
  1 24  1  0
  1 25  1  0
  1 26  1  0
  3 27  1  0
  4 28  1  0
  6 29  1  0
  6 30  1  0
 10 31  1  0
 10 32  1  0
 10 33  1  0
 11 34  1  0
 11 35  1  0
 12 36  1  0
 13 37  1  0
 13 38  1  0
 13 39  1  0
 14 40  1  0
 17 41  1  0
 17 42  1  0
 19 43  1  0
 20 44  1  0
M  END
>  <Energy>  (362) 
440.54854413706329

>  <compound_id>  (362) 
39889

>  <target_id>  (362) 
1

>  <reference_id>  (362) 
59

>  <inspiration_ids>  (362) 
[76, 59]

>  <energy_score>  (362) 
369.24882970524436

>  <distance_score>  (362) 
8.670671933149874

>  <path>  (362) 
/opt/xchem-fragalysis-2/maxwin/BulkDock/SCRATCH/511017/C39889-P59/C39889-P59.minimised.mol

>  <scratch_subdir>  (362) 
/opt/xchem-fragalysis-2/maxwin/BulkDock/SCRATCH/511017/C39889-P59

>  <fragmenstein_runtime>  (362) 
10.901108503341675

>  <fragmenstein_outcome>  (362) 
too moved

>  <fragmenstein_mode>  (362) 
expansion

>  <fragmenstein_error>  (362) 


$$$$
C39890-P76
     RDKit          3D

 37 38  0  0  0  0  0  0  0  0999 V2000
   -1.2626   -0.5771   30.7108 C   0  0  0  0  0  0  0  0  0  0  0  0
   -0.2100   -1.0732   29.7698 C   0  0  0  0  0  0  0  0  0  0  0  0
   -0.1067   -2.3090   29.1697 C   0  0  0  0  0  0  0  0  0  0  0  0
    1.0240   -2.3995   28.2931 C   0  0  0  0  0  0  0  0  0  0  0  0
    1.7656   -1.2340   28.2214 C   0  0  0  0  0  0  0  0  0  0  0  0
    2.9891   -0.8544   27.3692 C   0  0  0  0  0  0  0  0  0  0  0  0
    3.7148   -1.9807   26.5675 C   0  0  0  0  0  0  0  0  0  0  0  0
    5.0362   -1.5333   25.7854 C   0  0  0  0  0  0  0  0  0  0  0  0
    5.4384   -2.2325   24.2749 C   0  0  0  0  0  0  0  0  0  0  0  0
    4.7148   -1.7892   23.4061 O   0  0  0  0  0  0  0  0  0  0  0  0
    6.6950   -3.3206   24.1417 N   0  0  0  0  0  0  0  0  0  0  0  0
    7.4487   -4.0764   22.6837 C   0  0  0  0  0  0  0  0  0  0  0  0
    8.5323   -3.6451   20.9809 C   0  0  0  0  0  0  0  0  0  0  0  0
   10.7993   -3.6092   20.9244 C   0  0  0  0  0  0  0  0  0  0  0  0
   12.3148   -3.7056   20.8850 C   0  0  0  0  0  0  0  0  0  0  0  0
   13.1006   -4.8241   20.8134 C   0  0  0  0  0  0  0  0  0  0  0  0
   12.2940   -5.7791   20.5661 N   0  0  0  0  0  0  0  0  0  0  0  0
   11.0401   -5.2544   20.4711 O   0  0  0  0  0  0  0  0  0  0  0  0
    1.0792   -0.0501   29.2864 S   0  0  0  0  0  0  0  0  0  0  0  0
   -1.9981   -1.3610   30.9203 H   0  0  0  0  0  0  0  0  0  0  0  0
   -0.8169   -0.2693   31.6622 H   0  0  0  0  0  0  0  0  0  0  0  0
   -1.7948    0.2769   30.2787 H   0  0  0  0  0  0  0  0  0  0  0  0
   -0.8190   -3.1106   29.3170 H   0  0  0  0  0  0  0  0  0  0  0  0
    1.2620   -3.2743   27.7019 H   0  0  0  0  0  0  0  0  0  0  0  0
    2.6745   -0.0790   26.6601 H   0  0  0  0  0  0  0  0  0  0  0  0
    3.7306   -0.3931   28.0349 H   0  0  0  0  0  0  0  0  0  0  0  0
    3.9971   -2.7417   27.2946 H   0  0  0  0  0  0  0  0  0  0  0  0
    3.0272   -2.4338   25.8519 H   0  0  0  0  0  0  0  0  0  0  0  0
    5.9160   -1.4966   26.4401 H   0  0  0  0  0  0  0  0  0  0  0  0
    4.8229   -0.4831   25.5485 H   0  0  0  0  0  0  0  0  0  0  0  0
    7.1477   -3.4182   25.0330 H   0  0  0  0  0  0  0  0  0  0  0  0
    6.6451   -3.4647   22.3545 H   0  0  0  0  0  0  0  0  0  0  0  0
    7.3503   -5.1548   22.8404 H   0  0  0  0  0  0  0  0  0  0  0  0
    8.2087   -4.4148   20.2655 H   0  0  0  0  0  0  0  0  0  0  0  0
    8.0314   -2.8133   21.1091 H   0  0  0  0  0  0  0  0  0  0  0  0
   12.9947   -2.8693   20.9284 H   0  0  0  0  0  0  0  0  0  0  0  0
   14.1698   -4.9630   20.8612 H   0  0  0  0  0  0  0  0  0  0  0  0
  1  2  1  0
  2  3  2  0
  3  4  1  0
  4  5  2  0
  5  6  1  0
  6  7  1  0
  7  8  1  0
  8  9  1  0
  9 10  2  0
  9 11  1  0
 11 12  1  0
 12 13  1  0
 13 14  1  0
 14 15  2  0
 15 16  1  0
 16 17  2  0
 17 18  1  0
  5 19  1  0
 19  2  1  0
 18 14  1  0
  1 20  1  0
  1 21  1  0
  1 22  1  0
  3 23  1  0
  4 24  1  0
  6 25  1  0
  6 26  1  0
  7 27  1  0
  7 28  1  0
  8 29  1  0
  8 30  1  0
 11 31  1  0
 12 32  1  0
 12 33  1  0
 13 34  1  0
 13 35  1  0
 15 36  1  0
 16 37  1  0
M  END
>  <Energy>  (363) 
520.83674277727005

>  <compound_id>  (363) 
39890

>  <target_id>  (363) 
1

>  <reference_id>  (363) 
76

>  <inspiration_ids>  (363) 
[76, 59]

>  <energy_score>  (363) 
478.4825214592487

>  <distance_score>  (363) 
6.962697841500578

>  <path>  (363) 
/opt/xchem-fragalysis-2/maxwin/BulkDock/SCRATCH/511017/C39890-P76/C39890-P76.minimised.mol

>  <scratch_subdir>  (363) 
/opt/xchem-fragalysis-2/maxwin/BulkDock/SCRATCH/511017/C39890-P76

>  <fragmenstein_runtime>  (363) 
9.651634216308594

>  <fragmenstein_outcome>  (363) 
too moved

>  <fragmenstein_mode>  (363) 
expansion

>  <fragmenstein_error>  (363) 


$$$$
C39890-P59
     RDKit          3D

 37 38  0  0  0  0  0  0  0  0999 V2000
    0.5368   -3.5566   29.5486 C   0  0  0  0  0  0  0  0  0  0  0  0
    1.7590   -3.1916   28.7607 C   0  0  0  0  0  0  0  0  0  0  0  0
    2.1951   -1.9238   28.4495 C   0  0  0  0  0  0  0  0  0  0  0  0
    3.3731   -1.9425   27.6406 C   0  0  0  0  0  0  0  0  0  0  0  0
    3.8254   -3.2179   27.3215 C   0  0  0  0  0  0  0  0  0  0  0  0
    5.0840   -3.5770   26.4701 C   0  0  0  0  0  0  0  0  0  0  0  0
    4.8783   -4.5826   25.2958 C   0  0  0  0  0  0  0  0  0  0  0  0
    6.0422   -4.7044   23.9681 C   0  0  0  0  0  0  0  0  0  0  0  0
    5.9997   -3.0829   22.9051 C   0  0  0  0  0  0  0  0  0  0  0  0
    5.2953   -2.2354   23.4779 O   0  0  0  0  0  0  0  0  0  0  0  0
    6.8832   -2.7577   21.2689 N   0  0  0  0  0  0  0  0  0  0  0  0
    7.0400   -1.0477   20.1519 C   0  0  0  0  0  0  0  0  0  0  0  0
    7.9791    0.4645   19.4925 C   0  0  0  0  0  0  0  0  0  0  0  0
    8.4222    0.7508   18.0546 C   0  0  0  0  0  0  0  0  0  0  0  0
    8.6155    1.9485   17.3899 C   0  0  0  0  0  0  0  0  0  0  0  0
    9.2184    1.5976   16.1680 C   0  0  0  0  0  0  0  0  0  0  0  0
    9.4433    0.2871   16.0958 N   0  0  0  0  0  0  0  0  0  0  0  0
    8.9534   -0.2210   17.2703 O   0  0  0  0  0  0  0  0  0  0  0  0
    2.8142   -4.3834   28.0945 S   0  0  0  0  0  0  0  0  0  0  0  0
   -0.3398   -3.5750   28.8933 H   0  0  0  0  0  0  0  0  0  0  0  0
    0.6404   -4.5393   30.0196 H   0  0  0  0  0  0  0  0  0  0  0  0
    0.3580   -2.8226   30.3411 H   0  0  0  0  0  0  0  0  0  0  0  0
    1.6867   -1.0192   28.7604 H   0  0  0  0  0  0  0  0  0  0  0  0
    3.8645   -1.0471   27.2765 H   0  0  0  0  0  0  0  0  0  0  0  0
    5.8519   -3.9703   27.1472 H   0  0  0  0  0  0  0  0  0  0  0  0
    5.4769   -2.6399   26.0594 H   0  0  0  0  0  0  0  0  0  0  0  0
    4.8308   -5.5976   25.7126 H   0  0  0  0  0  0  0  0  0  0  0  0
    3.8853   -4.3592   24.9264 H   0  0  0  0  0  0  0  0  0  0  0  0
    5.9276   -5.6590   23.4519 H   0  0  0  0  0  0  0  0  0  0  0  0
    6.8613   -4.9861   24.6328 H   0  0  0  0  0  0  0  0  0  0  0  0
    7.3277   -3.6208   20.9526 H   0  0  0  0  0  0  0  0  0  0  0  0
    6.6960   -1.1424   19.1235 H   0  0  0  0  0  0  0  0  0  0  0  0
    7.9944   -1.1887   19.6216 H   0  0  0  0  0  0  0  0  0  0  0  0
    8.8527    0.5825   20.1258 H   0  0  0  0  0  0  0  0  0  0  0  0
    7.3989    1.3480   19.7130 H   0  0  0  0  0  0  0  0  0  0  0  0
    8.3555    2.9345   17.7444 H   0  0  0  0  0  0  0  0  0  0  0  0
    9.5174    2.2337   15.3474 H   0  0  0  0  0  0  0  0  0  0  0  0
  1  2  1  0
  2  3  2  0
  3  4  1  0
  4  5  2  0
  5  6  1  0
  6  7  1  0
  7  8  1  0
  8  9  1  0
  9 10  2  0
  9 11  1  0
 11 12  1  0
 12 13  1  0
 13 14  1  0
 14 15  2  0
 15 16  1  0
 16 17  2  0
 17 18  1  0
  5 19  1  0
 19  2  1  0
 18 14  1  0
  1 20  1  0
  1 21  1  0
  1 22  1  0
  3 23  1  0
  4 24  1  0
  6 25  1  0
  6 26  1  0
  7 27  1  0
  7 28  1  0
  8 29  1  0
  8 30  1  0
 11 31  1  0
 12 32  1  0
 12 33  1  0
 13 34  1  0
 13 35  1  0
 15 36  1  0
 16 37  1  0
M  END
>  <Energy>  (364) 
390.99177989404109

>  <compound_id>  (364) 
39890

>  <target_id>  (364) 
1

>  <reference_id>  (364) 
59

>  <inspiration_ids>  (364) 
[76, 59]

>  <energy_score>  (364) 
348.63755857601893

>  <distance_score>  (364) 
8.52020089699442

>  <path>  (364) 
/opt/xchem-fragalysis-2/maxwin/BulkDock/SCRATCH/511017/C39890-P59/C39890-P59.minimised.mol

>  <scratch_subdir>  (364) 
/opt/xchem-fragalysis-2/maxwin/BulkDock/SCRATCH/511017/C39890-P59

>  <fragmenstein_runtime>  (364) 
14.55352520942688

>  <fragmenstein_outcome>  (364) 
too moved

>  <fragmenstein_mode>  (364) 
expansion

>  <fragmenstein_error>  (364) 


$$$$
C39891-P76
     RDKit          3D

 29 30  0  0  0  0  0  0  0  0999 V2000
   14.4352    7.2991   13.2816 C   0  0  0  0  0  0  0  0  0  0  0  0
   15.1920    6.0408   13.5342 C   0  0  0  0  0  0  0  0  0  0  0  0
   15.5090    5.0359   12.6441 C   0  0  0  0  0  0  0  0  0  0  0  0
   16.2504    3.9678   13.2493 C   0  0  0  0  0  0  0  0  0  0  0  0
   16.7236    2.7450   12.5252 C   0  0  0  0  0  0  0  0  0  0  0  0
   15.6643    1.6695   12.5126 C   0  0  0  0  0  0  0  0  0  0  0  0
   14.8638    1.4921   11.6022 O   0  0  0  0  0  0  0  0  0  0  0  0
   15.7040    0.9397   13.6613 O   0  0  0  0  0  0  0  0  0  0  0  0
   14.6620   -0.0296   13.7585 C   0  0  0  0  0  0  0  0  0  0  0  0
   14.7865   -0.8750   15.0274 C   0  0  0  0  0  0  0  0  0  0  0  0
   15.7434   -0.7582   15.7925 O   0  0  0  0  0  0  0  0  0  0  0  0
   13.7018   -1.8032   15.2536 C   0  0  0  0  0  0  0  0  0  0  0  0
   12.5060   -2.0359   14.6082 C   0  0  0  0  0  0  0  0  0  0  0  0
   11.8925   -3.0465   15.3637 C   0  0  0  0  0  0  0  0  0  0  0  0
   12.6400   -3.4186   16.4029 N   0  0  0  0  0  0  0  0  0  0  0  0
   13.7873   -2.6439   16.3287 O   0  0  0  0  0  0  0  0  0  0  0  0
   16.4642    4.2211   14.5914 C   0  0  0  0  0  0  0  0  0  0  0  0
   15.7861    5.7039   15.1007 S   0  0  0  0  0  0  0  0  0  0  0  0
   14.1265    7.3659   12.2331 H   0  0  0  0  0  0  0  0  0  0  0  0
   13.5321    7.3400   13.8994 H   0  0  0  0  0  0  0  0  0  0  0  0
   15.0524    8.1754   13.5051 H   0  0  0  0  0  0  0  0  0  0  0  0
   15.2177    5.0592   11.5996 H   0  0  0  0  0  0  0  0  0  0  0  0
   16.9777    2.9859   11.4861 H   0  0  0  0  0  0  0  0  0  0  0  0
   17.6392    2.3435   12.9754 H   0  0  0  0  0  0  0  0  0  0  0  0
   13.6992    0.4941   13.7844 H   0  0  0  0  0  0  0  0  0  0  0  0
   14.7092   -0.7091   12.8989 H   0  0  0  0  0  0  0  0  0  0  0  0
   12.1156   -1.5460   13.7275 H   0  0  0  0  0  0  0  0  0  0  0  0
   10.9425   -3.5338   15.1971 H   0  0  0  0  0  0  0  0  0  0  0  0
   16.9864    3.5997   15.3075 H   0  0  0  0  0  0  0  0  0  0  0  0
  1  2  1  0
  2  3  2  0
  3  4  1  0
  4  5  1  0
  5  6  1  0
  6  7  2  0
  6  8  1  0
  8  9  1  0
  9 10  1  0
 10 11  2  0
 10 12  1  0
 12 13  2  0
 13 14  1  0
 14 15  2  0
 15 16  1  0
  4 17  2  0
 17 18  1  0
 18  2  1  0
 16 12  1  0
  1 19  1  0
  1 20  1  0
  1 21  1  0
  3 22  1  0
  5 23  1  0
  5 24  1  0
  9 25  1  0
  9 26  1  0
 13 27  1  0
 14 28  1  0
 17 29  1  0
M  END
>  <Energy>  (365) 
41.438957543498539

>  <compound_id>  (365) 
39891

>  <target_id>  (365) 
1

>  <reference_id>  (365) 
76

>  <inspiration_ids>  (365) 
[76, 59]

>  <energy_score>  (365) 
-44.335577251359624

>  <distance_score>  (365) 
1.4147179584574727

>  <path>  (365) 
/opt/xchem-fragalysis-2/maxwin/BulkDock/SCRATCH/511017/C39891-P76/C39891-P76.minimised.mol

>  <scratch_subdir>  (365) 
/opt/xchem-fragalysis-2/maxwin/BulkDock/SCRATCH/511017/C39891-P76

>  <fragmenstein_runtime>  (365) 
1.0232505798339844

>  <fragmenstein_outcome>  (365) 
too moved

>  <fragmenstein_mode>  (365) 
expansion

>  <fragmenstein_error>  (365) 


$$$$
C39891-P59
     RDKit          3D

 29 30  0  0  0  0  0  0  0  0999 V2000
   19.6999    3.2161   14.3909 C   0  0  0  0  0  0  0  0  0  0  0  0
   18.4698    3.4601   13.5860 C   0  0  0  0  0  0  0  0  0  0  0  0
   17.1526    3.3021   13.9632 C   0  0  0  0  0  0  0  0  0  0  0  0
   16.2275    3.6228   12.9137 C   0  0  0  0  0  0  0  0  0  0  0  0
   14.7373    3.5391   13.0346 C   0  0  0  0  0  0  0  0  0  0  0  0
   14.2271    2.1232   12.9032 C   0  0  0  0  0  0  0  0  0  0  0  0
   13.5953    1.6978   11.9441 O   0  0  0  0  0  0  0  0  0  0  0  0
   14.5293    1.3936   14.0120 O   0  0  0  0  0  0  0  0  0  0  0  0
   14.0346    0.0543   13.9772 C   0  0  0  0  0  0  0  0  0  0  0  0
   14.4472   -0.7217   15.2292 C   0  0  0  0  0  0  0  0  0  0  0  0
   15.3742   -0.3381   15.9430 O   0  0  0  0  0  0  0  0  0  0  0  0
   13.6684   -1.9083   15.5037 C   0  0  0  0  0  0  0  0  0  0  0  0
   12.6940   -2.5934   14.8073 C   0  0  0  0  0  0  0  0  0  0  0  0
   12.3356   -3.6519   15.6602 C   0  0  0  0  0  0  0  0  0  0  0  0
   13.0069   -3.6093   16.8094 N   0  0  0  0  0  0  0  0  0  0  0  0
   13.8651   -2.5315   16.7018 O   0  0  0  0  0  0  0  0  0  0  0  0
   16.9035    4.0192   11.7749 C   0  0  0  0  0  0  0  0  0  0  0  0
   18.6004    4.0033   11.9715 S   0  0  0  0  0  0  0  0  0  0  0  0
   19.4456    2.8746   15.3998 H   0  0  0  0  0  0  0  0  0  0  0  0
   20.3231    2.4462   13.9242 H   0  0  0  0  0  0  0  0  0  0  0  0
   20.2898    4.1336   14.4869 H   0  0  0  0  0  0  0  0  0  0  0  0
   16.8623    2.9551   14.9495 H   0  0  0  0  0  0  0  0  0  0  0  0
   14.4002    3.9456   13.9955 H   0  0  0  0  0  0  0  0  0  0  0  0
   14.2541    4.1465   12.2596 H   0  0  0  0  0  0  0  0  0  0  0  0
   12.9403    0.0937   13.9268 H   0  0  0  0  0  0  0  0  0  0  0  0
   14.4415   -0.4734   13.1066 H   0  0  0  0  0  0  0  0  0  0  0  0
   12.2960   -2.3765   13.8268 H   0  0  0  0  0  0  0  0  0  0  0  0
   11.6199   -4.4475   15.5074 H   0  0  0  0  0  0  0  0  0  0  0  0
   16.4826    4.3193   10.8243 H   0  0  0  0  0  0  0  0  0  0  0  0
  1  2  1  0
  2  3  2  0
  3  4  1  0
  4  5  1  0
  5  6  1  0
  6  7  2  0
  6  8  1  0
  8  9  1  0
  9 10  1  0
 10 11  2  0
 10 12  1  0
 12 13  2  0
 13 14  1  0
 14 15  2  0
 15 16  1  0
  4 17  2  0
 17 18  1  0
 18  2  1  0
 16 12  1  0
  1 19  1  0
  1 20  1  0
  1 21  1  0
  3 22  1  0
  5 23  1  0
  5 24  1  0
  9 25  1  0
  9 26  1  0
 13 27  1  0
 14 28  1  0
 17 29  1  0
M  END
>  <Energy>  (366) 
42.067194061497354

>  <compound_id>  (366) 
39891

>  <target_id>  (366) 
1

>  <reference_id>  (366) 
59

>  <inspiration_ids>  (366) 
[76, 59]

>  <energy_score>  (366) 
-43.70734073336109

>  <distance_score>  (366) 
1.1076428173429997

>  <path>  (366) 
/opt/xchem-fragalysis-2/maxwin/BulkDock/SCRATCH/511017/C39891-P59/C39891-P59.minimised.mol

>  <scratch_subdir>  (366) 
/opt/xchem-fragalysis-2/maxwin/BulkDock/SCRATCH/511017/C39891-P59

>  <fragmenstein_runtime>  (366) 
0.8387293815612793

>  <fragmenstein_outcome>  (366) 
too moved

>  <fragmenstein_mode>  (366) 
expansion

>  <fragmenstein_error>  (366) 


$$$$
C39892-P76
     RDKit          3D

 37 38  0  0  0  0  0  0  0  0999 V2000
   12.7443    6.4505   14.5773 C   0  0  0  0  0  0  0  0  0  0  0  0
   11.6940    5.3986   14.4689 C   0  0  0  0  0  0  0  0  0  0  0  0
   11.3643    4.6324   13.3722 C   0  0  0  0  0  0  0  0  0  0  0  0
   10.3140    3.7221   13.6571 C   0  0  0  0  0  0  0  0  0  0  0  0
    9.8848    3.8002   14.9716 C   0  0  0  0  0  0  0  0  0  0  0  0
    9.0714    2.7876   15.6595 C   0  0  0  0  0  0  0  0  0  0  0  0
    8.8948    1.7671   15.0638 O   0  0  0  0  0  0  0  0  0  0  0  0
    8.7044    3.1667   16.9851 N   0  0  0  0  0  0  0  0  0  0  0  0
    8.1391    2.4592   17.9759 N   0  0  0  0  0  0  0  0  0  0  0  0
    7.7947    0.9775   18.0607 C   0  0  0  0  0  0  0  0  0  0  0  0
    7.8723    0.1450   17.2469 O   0  0  0  0  0  0  0  0  0  0  0  0
    7.4511    0.8822   19.4530 N   0  0  0  0  0  0  0  0  0  0  0  0
    7.2051   -0.2827   20.2976 C   0  0  0  0  0  0  0  0  0  0  0  0
    8.8658    0.5838   20.7859 C   0  0  0  0  0  0  0  0  0  0  0  0
    5.8379   -1.1733   21.5106 C   0  0  0  0  0  0  0  0  0  0  0  0
    5.0176   -1.7142   23.1908 C   0  0  0  0  0  0  0  0  0  0  0  0
    3.7396   -2.0762   23.7443 C   0  0  0  0  0  0  0  0  0  0  0  0
    3.6897   -1.7334   25.1050 C   0  0  0  0  0  0  0  0  0  0  0  0
    4.9034   -1.4045   25.5029 N   0  0  0  0  0  0  0  0  0  0  0  0
    5.7136   -1.8168   24.3962 O   0  0  0  0  0  0  0  0  0  0  0  0
   10.7211    5.0244   15.8230 S   0  0  0  0  0  0  0  0  0  0  0  0
   13.4805    6.1865   15.3436 H   0  0  0  0  0  0  0  0  0  0  0  0
   13.2774    6.5704   13.6283 H   0  0  0  0  0  0  0  0  0  0  0  0
   12.3004    7.4174   14.8363 H   0  0  0  0  0  0  0  0  0  0  0  0
   11.8688    4.7031   12.4161 H   0  0  0  0  0  0  0  0  0  0  0  0
    9.9524    2.9703   12.9649 H   0  0  0  0  0  0  0  0  0  0  0  0
    9.0915    4.0836   17.1851 H   0  0  0  0  0  0  0  0  0  0  0  0
    7.8779    2.9111   18.8299 H   0  0  0  0  0  0  0  0  0  0  0  0
    7.3997    1.8028   19.8405 H   0  0  0  0  0  0  0  0  0  0  0  0
    7.4941   -1.0109   19.6026 H   0  0  0  0  0  0  0  0  0  0  0  0
    9.3427    1.1344   19.9958 H   0  0  0  0  0  0  0  0  0  0  0  0
    9.5886    0.1122   21.4244 H   0  0  0  0  0  0  0  0  0  0  0  0
    8.6142    1.5084   21.3734 H   0  0  0  0  0  0  0  0  0  0  0  0
    5.1470   -0.3264   21.4175 H   0  0  0  0  0  0  0  0  0  0  0  0
    5.7091   -2.1922   21.0853 H   0  0  0  0  0  0  0  0  0  0  0  0
    2.8593   -2.4415   23.2507 H   0  0  0  0  0  0  0  0  0  0  0  0
    2.8633   -1.7310   25.7979 H   0  0  0  0  0  0  0  0  0  0  0  0
  1  2  1  0
  2  3  2  0
  3  4  1  0
  4  5  2  0
  5  6  1  0
  6  7  2  0
  6  8  1  0
  8  9  1  0
  9 10  1  0
 10 11  2  0
 10 12  1  0
 12 13  1  0
 13 14  1  0
 13 15  1  0
 15 16  1  0
 16 17  2  0
 17 18  1  0
 18 19  2  0
 19 20  1  0
  5 21  1  0
 21  2  1  0
 20 16  1  0
  1 22  1  0
  1 23  1  0
  1 24  1  0
  3 25  1  0
  4 26  1  0
  8 27  1  0
  9 28  1  0
 12 29  1  0
 13 30  1  0
 14 31  1  0
 14 32  1  0
 14 33  1  0
 15 34  1  0
 15 35  1  0
 17 36  1  0
 18 37  1  0
M  END
>  <Energy>  (367) 
364.67750679633605

>  <compound_id>  (367) 
39892

>  <target_id>  (367) 
1

>  <reference_id>  (367) 
76

>  <inspiration_ids>  (367) 
[76, 59]

>  <energy_score>  (367) 
337.1431343206441

>  <distance_score>  (367) 
7.9919109248473195

>  <path>  (367) 
/opt/xchem-fragalysis-2/maxwin/BulkDock/SCRATCH/511017/C39892-P76/C39892-P76.minimised.mol

>  <scratch_subdir>  (367) 
/opt/xchem-fragalysis-2/maxwin/BulkDock/SCRATCH/511017/C39892-P76

>  <fragmenstein_runtime>  (367) 
8.49461054801941

>  <fragmenstein_outcome>  (367) 
too moved

>  <fragmenstein_mode>  (367) 
expansion

>  <fragmenstein_error>  (367) 


$$$$
C39892-P59
     RDKit          3D

 37 38  0  0  0  0  0  0  0  0999 V2000
   14.7964    4.7442   14.3523 C   0  0  0  0  0  0  0  0  0  0  0  0
   13.5830    3.8839   14.2488 C   0  0  0  0  0  0  0  0  0  0  0  0
   13.3801    2.7882   13.4384 C   0  0  0  0  0  0  0  0  0  0  0  0
   12.0809    2.2443   13.6066 C   0  0  0  0  0  0  0  0  0  0  0  0
   11.3419    2.9080   14.5754 C   0  0  0  0  0  0  0  0  0  0  0  0
   10.0497    2.4339   15.0893 C   0  0  0  0  0  0  0  0  0  0  0  0
    9.4522    1.6753   14.3843 O   0  0  0  0  0  0  0  0  0  0  0  0
    9.7659    2.8996   16.4202 N   0  0  0  0  0  0  0  0  0  0  0  0
    8.8012    2.5469   17.2885 N   0  0  0  0  0  0  0  0  0  0  0  0
    8.4409    1.2299   17.8338 C   0  0  0  0  0  0  0  0  0  0  0  0
    8.8627    0.1669   17.5777 O   0  0  0  0  0  0  0  0  0  0  0  0
    7.4128    1.6340   18.9278 N   0  0  0  0  0  0  0  0  0  0  0  0
    6.4579    0.6294   20.0580 C   0  0  0  0  0  0  0  0  0  0  0  0
    7.2184   -0.5081   19.6074 C   0  0  0  0  0  0  0  0  0  0  0  0
    4.7039    0.6991   21.2096 C   0  0  0  0  0  0  0  0  0  0  0  0
    4.6325    1.3737   23.0423 C   0  0  0  0  0  0  0  0  0  0  0  0
    4.7760    0.8244   24.3279 C   0  0  0  0  0  0  0  0  0  0  0  0
    4.1934    1.7573   25.2056 C   0  0  0  0  0  0  0  0  0  0  0  0
    3.6944    2.8051   24.5562 N   0  0  0  0  0  0  0  0  0  0  0  0
    3.8892    2.5381   23.2091 O   0  0  0  0  0  0  0  0  0  0  0  0
   12.2020    4.2387   15.1978 S   0  0  0  0  0  0  0  0  0  0  0  0
   14.5671    5.7748   14.0620 H   0  0  0  0  0  0  0  0  0  0  0  0
   15.1840    4.7464   15.3764 H   0  0  0  0  0  0  0  0  0  0  0  0
   15.5918    4.3793   13.6941 H   0  0  0  0  0  0  0  0  0  0  0  0
   14.1235    2.3982   12.7531 H   0  0  0  0  0  0  0  0  0  0  0  0
   11.7104    1.3641   13.0901 H   0  0  0  0  0  0  0  0  0  0  0  0
   10.5409    3.4778   16.7426 H   0  0  0  0  0  0  0  0  0  0  0  0
    8.3012    3.2599   17.7896 H   0  0  0  0  0  0  0  0  0  0  0  0
    7.1974    2.6124   18.8361 H   0  0  0  0  0  0  0  0  0  0  0  0
    6.9379    1.5210   20.6232 H   0  0  0  0  0  0  0  0  0  0  0  0
    6.8779   -0.5913   18.5871 H   0  0  0  0  0  0  0  0  0  0  0  0
    6.9163   -1.2142   20.3502 H   0  0  0  0  0  0  0  0  0  0  0  0
    8.2892   -0.3520   19.6242 H   0  0  0  0  0  0  0  0  0  0  0  0
    3.6955    1.0621   21.0694 H   0  0  0  0  0  0  0  0  0  0  0  0
    4.7176   -0.3578   21.5893 H   0  0  0  0  0  0  0  0  0  0  0  0
    5.1056   -0.1622   24.5955 H   0  0  0  0  0  0  0  0  0  0  0  0
    4.0800    1.7020   26.2784 H   0  0  0  0  0  0  0  0  0  0  0  0
  1  2  1  0
  2  3  2  0
  3  4  1  0
  4  5  2  0
  5  6  1  0
  6  7  2  0
  6  8  1  0
  8  9  1  0
  9 10  1  0
 10 11  2  0
 10 12  1  0
 12 13  1  0
 13 14  1  0
 13 15  1  0
 15 16  1  0
 16 17  2  0
 17 18  1  0
 18 19  2  0
 19 20  1  0
  5 21  1  0
 21  2  1  0
 20 16  1  0
  1 22  1  0
  1 23  1  0
  1 24  1  0
  3 25  1  0
  4 26  1  0
  8 27  1  0
  9 28  1  0
 12 29  1  0
 13 30  1  0
 14 31  1  0
 14 32  1  0
 14 33  1  0
 15 34  1  0
 15 35  1  0
 17 36  1  0
 18 37  1  0
M  END
>  <Energy>  (368) 
294.45587253382467

>  <compound_id>  (368) 
39892

>  <target_id>  (368) 
1

>  <reference_id>  (368) 
59

>  <inspiration_ids>  (368) 
[76, 59]

>  <energy_score>  (368) 
266.9215000581319

>  <distance_score>  (368) 
7.435724294221596

>  <path>  (368) 
/opt/xchem-fragalysis-2/maxwin/BulkDock/SCRATCH/511017/C39892-P59/C39892-P59.minimised.mol

>  <scratch_subdir>  (368) 
/opt/xchem-fragalysis-2/maxwin/BulkDock/SCRATCH/511017/C39892-P59

>  <fragmenstein_runtime>  (368) 
6.563446998596191

>  <fragmenstein_outcome>  (368) 
too moved

>  <fragmenstein_mode>  (368) 
expansion

>  <fragmenstein_error>  (368) 


$$$$
C39893-P76
     RDKit          3D

 31 32  0  0  0  0  0  0  0  0999 V2000
   16.7519    6.0836   11.5836 C   0  0  0  0  0  0  0  0  0  0  0  0
   16.9517    5.3977   12.8912 C   0  0  0  0  0  0  0  0  0  0  0  0
   16.6723    5.8671   14.1572 C   0  0  0  0  0  0  0  0  0  0  0  0
   17.0030    4.9206   15.1687 C   0  0  0  0  0  0  0  0  0  0  0  0
   17.5203    3.7535   14.6440 C   0  0  0  0  0  0  0  0  0  0  0  0
   17.9815    2.5317   15.3783 C   0  0  0  0  0  0  0  0  0  0  0  0
   16.7811    1.7766   15.9533 C   0  0  0  0  0  0  0  0  0  0  0  0
   16.5572    1.7341   17.0989 O   0  0  0  0  0  0  0  0  0  0  0  0
   16.0506    1.1029   14.7598 N   0  0  0  0  0  0  0  0  0  0  0  0
   14.8414    0.3182   14.7249 C   0  0  0  0  0  0  0  0  0  0  0  0
   15.0571   -1.0844   15.2904 C   0  0  0  0  0  0  0  0  0  0  0  0
   13.8043   -1.8763   15.3467 C   0  0  0  0  0  0  0  0  0  0  0  0
   12.6596   -1.9406   14.5872 C   0  0  0  0  0  0  0  0  0  0  0  0
   11.8738   -2.9091   15.2318 C   0  0  0  0  0  0  0  0  0  0  0  0
   12.4780   -3.4069   16.3123 N   0  0  0  0  0  0  0  0  0  0  0  0
   13.7048   -2.7664   16.3765 O   0  0  0  0  0  0  0  0  0  0  0  0
   17.6102    3.8202   12.9354 S   0  0  0  0  0  0  0  0  0  0  0  0
   16.0682    5.5133   10.9463 H   0  0  0  0  0  0  0  0  0  0  0  0
   17.7048    6.2017   11.0573 H   0  0  0  0  0  0  0  0  0  0  0  0
   16.3226    7.0808   11.7266 H   0  0  0  0  0  0  0  0  0  0  0  0
   16.2500    6.8456   14.3533 H   0  0  0  0  0  0  0  0  0  0  0  0
   16.8619    5.0868   16.2310 H   0  0  0  0  0  0  0  0  0  0  0  0
   18.5640    1.8522   14.7456 H   0  0  0  0  0  0  0  0  0  0  0  0
   18.6339    2.8249   16.2097 H   0  0  0  0  0  0  0  0  0  0  0  0
   16.4624    1.4199   13.8870 H   0  0  0  0  0  0  0  0  0  0  0  0
   14.0933    0.8567   15.3158 H   0  0  0  0  0  0  0  0  0  0  0  0
   14.5012    0.2814   13.6847 H   0  0  0  0  0  0  0  0  0  0  0  0
   15.4865   -1.0100   16.2974 H   0  0  0  0  0  0  0  0  0  0  0  0
   15.7927   -1.6202   14.6781 H   0  0  0  0  0  0  0  0  0  0  0  0
   12.4166   -1.3719   13.7019 H   0  0  0  0  0  0  0  0  0  0  0  0
   10.8953   -3.2767   14.9583 H   0  0  0  0  0  0  0  0  0  0  0  0
  1  2  1  0
  2  3  2  0
  3  4  1  0
  4  5  2  0
  5  6  1  0
  6  7  1  0
  7  8  2  0
  7  9  1  0
  9 10  1  0
 10 11  1  0
 11 12  1  0
 12 13  2  0
 13 14  1  0
 14 15  2  0
 15 16  1  0
  5 17  1  0
 17  2  1  0
 16 12  1  0
  1 18  1  0
  1 19  1  0
  1 20  1  0
  3 21  1  0
  4 22  1  0
  6 23  1  0
  6 24  1  0
  9 25  1  0
 10 26  1  0
 10 27  1  0
 11 28  1  0
 11 29  1  0
 13 30  1  0
 14 31  1  0
M  END
>  <Energy>  (369) 
26.209851532641803

>  <compound_id>  (369) 
39893

>  <target_id>  (369) 
1

>  <reference_id>  (369) 
76

>  <inspiration_ids>  (369) 
[76, 59]

>  <energy_score>  (369) 
-25.23721151031431

>  <distance_score>  (369) 
0.692978720271578

>  <path>  (369) 
/opt/xchem-fragalysis-2/maxwin/BulkDock/SCRATCH/511017/C39893-P76/C39893-P76.minimised.mol

>  <scratch_subdir>  (369) 
/opt/xchem-fragalysis-2/maxwin/BulkDock/SCRATCH/511017/C39893-P76

>  <fragmenstein_runtime>  (369) 
0.8808987140655518

>  <fragmenstein_outcome>  (369) 
acceptable

>  <fragmenstein_mode>  (369) 
expansion

>  <fragmenstein_error>  (369) 


$$$$
C39893-P59
     RDKit          3D

 31 32  0  0  0  0  0  0  0  0999 V2000
   13.7570    6.2435   17.5255 C   0  0  0  0  0  0  0  0  0  0  0  0
   14.6954    5.3707   16.7624 C   0  0  0  0  0  0  0  0  0  0  0  0
   15.9025    4.8441   17.1715 C   0  0  0  0  0  0  0  0  0  0  0  0
   16.5171    4.0517   16.1590 C   0  0  0  0  0  0  0  0  0  0  0  0
   15.7626    3.9986   15.0043 C   0  0  0  0  0  0  0  0  0  0  0  0
   16.0852    3.3041   13.7143 C   0  0  0  0  0  0  0  0  0  0  0  0
   15.9811    1.7856   13.8728 C   0  0  0  0  0  0  0  0  0  0  0  0
   16.9151    1.0855   13.8312 O   0  0  0  0  0  0  0  0  0  0  0  0
   14.4717    1.4428   14.0045 N   0  0  0  0  0  0  0  0  0  0  0  0
   13.8129    0.1741   14.2070 C   0  0  0  0  0  0  0  0  0  0  0  0
   14.5446   -0.7674   15.1671 C   0  0  0  0  0  0  0  0  0  0  0  0
   13.7076   -1.9522   15.4842 C   0  0  0  0  0  0  0  0  0  0  0  0
   13.0176   -2.8738   14.7322 C   0  0  0  0  0  0  0  0  0  0  0  0
   12.4245   -3.7192   15.6856 C   0  0  0  0  0  0  0  0  0  0  0  0
   12.7040   -3.3345   16.9314 N   0  0  0  0  0  0  0  0  0  0  0  0
   13.5402   -2.2411   16.8038 O   0  0  0  0  0  0  0  0  0  0  0  0
   14.3123    4.8959   15.1644 S   0  0  0  0  0  0  0  0  0  0  0  0
   12.7849    5.7540   17.6464 H   0  0  0  0  0  0  0  0  0  0  0  0
   13.6077    7.1977   17.0097 H   0  0  0  0  0  0  0  0  0  0  0  0
   14.1498    6.4599   18.5244 H   0  0  0  0  0  0  0  0  0  0  0  0
   16.3329    5.0216   18.1508 H   0  0  0  0  0  0  0  0  0  0  0  0
   17.4740    3.5527   16.2707 H   0  0  0  0  0  0  0  0  0  0  0  0
   15.4345    3.6218   12.8913 H   0  0  0  0  0  0  0  0  0  0  0  0
   17.1119    3.5479   13.4149 H   0  0  0  0  0  0  0  0  0  0  0  0
   13.9356    2.2999   14.0925 H   0  0  0  0  0  0  0  0  0  0  0  0
   12.8036    0.3985   14.5711 H   0  0  0  0  0  0  0  0  0  0  0  0
   13.7130   -0.2908   13.2197 H   0  0  0  0  0  0  0  0  0  0  0  0
   14.8012   -0.2313   16.0885 H   0  0  0  0  0  0  0  0  0  0  0  0
   15.4892   -1.1009   14.7225 H   0  0  0  0  0  0  0  0  0  0  0  0
   12.9577   -2.9341   13.6567 H   0  0  0  0  0  0  0  0  0  0  0  0
   11.8056   -4.5934   15.5384 H   0  0  0  0  0  0  0  0  0  0  0  0
  1  2  1  0
  2  3  2  0
  3  4  1  0
  4  5  2  0
  5  6  1  0
  6  7  1  0
  7  8  2  0
  7  9  1  0
  9 10  1  0
 10 11  1  0
 11 12  1  0
 12 13  2  0
 13 14  1  0
 14 15  2  0
 15 16  1  0
  5 17  1  0
 17  2  1  0
 16 12  1  0
  1 18  1  0
  1 19  1  0
  1 20  1  0
  3 21  1  0
  4 22  1  0
  6 23  1  0
  6 24  1  0
  9 25  1  0
 10 26  1  0
 10 27  1  0
 11 28  1  0
 11 29  1  0
 13 30  1  0
 14 31  1  0
M  END
>  <Energy>  (370) 
25.893639631382882

>  <compound_id>  (370) 
39893

>  <target_id>  (370) 
1

>  <reference_id>  (370) 
59

>  <inspiration_ids>  (370) 
[76, 59]

>  <energy_score>  (370) 
-25.55342341157403

>  <distance_score>  (370) 
1.2719043096289904

>  <path>  (370) 
/opt/xchem-fragalysis-2/maxwin/BulkDock/SCRATCH/511017/C39893-P59/C39893-P59.minimised.mol

>  <scratch_subdir>  (370) 
/opt/xchem-fragalysis-2/maxwin/BulkDock/SCRATCH/511017/C39893-P59

>  <fragmenstein_runtime>  (370) 
1.515429973602295

>  <fragmenstein_outcome>  (370) 
too moved

>  <fragmenstein_mode>  (370) 
expansion

>  <fragmenstein_error>  (370) 


$$$$
C39895-P76
     RDKit          3D

 44 45  0  0  0  0  0  0  0  0999 V2000
   -2.2024    0.3195   31.6433 C   0  0  0  0  0  0  0  0  0  0  0  0
   -1.1170    1.0710   30.9427 C   0  0  0  0  0  0  0  0  0  0  0  0
   -0.1848    1.9359   31.4729 C   0  0  0  0  0  0  0  0  0  0  0  0
    0.6719    2.5024   30.4711 C   0  0  0  0  0  0  0  0  0  0  0  0
    0.3912    2.0515   29.1949 C   0  0  0  0  0  0  0  0  0  0  0  0
    0.9522    2.4327   27.8260 C   0  0  0  0  0  0  0  0  0  0  0  0
    2.3150    3.1924   27.7371 C   0  0  0  0  0  0  0  0  0  0  0  0
    2.5977    3.7387   26.2873 C   0  0  0  0  0  0  0  0  0  0  0  0
    1.7324    3.6096   25.4681 O   0  0  0  0  0  0  0  0  0  0  0  0
    3.9017    4.3850   26.1968 N   0  0  0  0  0  0  0  0  0  0  0  0
    4.5231    5.1659   25.1017 C   0  0  0  0  0  0  0  0  0  0  0  0
    6.0602    4.9908   24.8378 C   0  0  0  0  0  0  0  0  0  0  0  0
    6.8960    6.1149   25.4416 C   0  0  0  0  0  0  0  0  0  0  0  0
    6.4427    4.9089   23.4138 N   0  0  0  0  0  0  0  0  0  0  0  0
    7.7162    4.5720   22.7844 C   0  0  0  0  0  0  0  0  0  0  0  0
    8.7496    4.2009   23.2643 O   0  0  0  0  0  0  0  0  0  0  0  0
    7.5890    4.6984   21.2476 C   0  0  0  0  0  0  0  0  0  0  0  0
    8.6888    4.0278   20.4717 C   0  0  0  0  0  0  0  0  0  0  0  0
   10.0626    3.9896   20.5606 C   0  0  0  0  0  0  0  0  0  0  0  0
   10.4757    3.3338   19.3907 C   0  0  0  0  0  0  0  0  0  0  0  0
    9.4424    2.9312   18.6503 N   0  0  0  0  0  0  0  0  0  0  0  0
    8.3148    3.3661   19.3315 O   0  0  0  0  0  0  0  0  0  0  0  0
   -0.9128    0.9101   29.2519 S   0  0  0  0  0  0  0  0  0  0  0  0
   -3.1635    0.4546   31.1377 H   0  0  0  0  0  0  0  0  0  0  0  0
   -2.3150    0.6703   32.6744 H   0  0  0  0  0  0  0  0  0  0  0  0
   -1.9699   -0.7499   31.6717 H   0  0  0  0  0  0  0  0  0  0  0  0
   -0.1227    2.1746   32.5277 H   0  0  0  0  0  0  0  0  0  0  0  0
    1.4477    3.2260   30.6882 H   0  0  0  0  0  0  0  0  0  0  0  0
    0.1824    3.0509   27.3434 H   0  0  0  0  0  0  0  0  0  0  0  0
    1.0424    1.5233   27.2162 H   0  0  0  0  0  0  0  0  0  0  0  0
    3.1314    2.5231   28.0292 H   0  0  0  0  0  0  0  0  0  0  0  0
    2.3079    4.0534   28.4147 H   0  0  0  0  0  0  0  0  0  0  0  0
    4.4083    4.2319   27.0624 H   0  0  0  0  0  0  0  0  0  0  0  0
    4.3005    6.2161   25.3228 H   0  0  0  0  0  0  0  0  0  0  0  0
    3.9555    4.9182   24.1980 H   0  0  0  0  0  0  0  0  0  0  0  0
    6.3955    4.0602   25.3036 H   0  0  0  0  0  0  0  0  0  0  0  0
    6.6820    7.0733   24.9552 H   0  0  0  0  0  0  0  0  0  0  0  0
    7.9691    5.9220   25.3372 H   0  0  0  0  0  0  0  0  0  0  0  0
    6.6814    6.2215   26.5102 H   0  0  0  0  0  0  0  0  0  0  0  0
    5.7570    5.1067   22.6910 H   0  0  0  0  0  0  0  0  0  0  0  0
    7.5873    5.7672   21.0044 H   0  0  0  0  0  0  0  0  0  0  0  0
    6.6274    4.2800   20.9399 H   0  0  0  0  0  0  0  0  0  0  0  0
   10.6745    4.4280   21.3354 H   0  0  0  0  0  0  0  0  0  0  0  0
   11.4808    3.1378   19.0470 H   0  0  0  0  0  0  0  0  0  0  0  0
  1  2  1  0
  2  3  2  0
  3  4  1  0
  4  5  2  0
  5  6  1  0
  6  7  1  0
  7  8  1  0
  8  9  2  0
  8 10  1  0
 10 11  1  0
 11 12  1  0
 12 13  1  0
 12 14  1  0
 14 15  1  0
 15 16  2  0
 15 17  1  0
 17 18  1  0
 18 19  2  0
 19 20  1  0
 20 21  2  0
 21 22  1  0
  5 23  1  0
 23  2  1  0
 22 18  1  0
  1 24  1  0
  1 25  1  0
  1 26  1  0
  3 27  1  0
  4 28  1  0
  6 29  1  0
  6 30  1  0
  7 31  1  0
  7 32  1  0
 10 33  1  0
 11 34  1  0
 11 35  1  0
 12 36  1  0
 13 37  1  0
 13 38  1  0
 13 39  1  0
 14 40  1  0
 17 41  1  0
 17 42  1  0
 19 43  1  0
 20 44  1  0
M  END
>  <Energy>  (371) 
20.722683193172148

>  <compound_id>  (371) 
39895

>  <target_id>  (371) 
1

>  <reference_id>  (371) 
76

>  <inspiration_ids>  (371) 
[76, 59]

>  <energy_score>  (371) 
-18.978296955331956

>  <distance_score>  (371) 
9.898526998093157

>  <path>  (371) 
/opt/xchem-fragalysis-2/maxwin/BulkDock/SCRATCH/511017/C39895-P76/C39895-P76.minimised.mol

>  <scratch_subdir>  (371) 
/opt/xchem-fragalysis-2/maxwin/BulkDock/SCRATCH/511017/C39895-P76

>  <fragmenstein_runtime>  (371) 
12.912389755249023

>  <fragmenstein_outcome>  (371) 
too moved

>  <fragmenstein_mode>  (371) 
expansion

>  <fragmenstein_error>  (371) 


$$$$
C39895-P59
     RDKit          3D

 44 45  0  0  0  0  0  0  0  0999 V2000
   -1.7805    0.8030   28.2556 C   0  0  0  0  0  0  0  0  0  0  0  0
   -0.3479    0.9053   27.8420 C   0  0  0  0  0  0  0  0  0  0  0  0
    0.7339    0.2244   28.3541 C   0  0  0  0  0  0  0  0  0  0  0  0
    1.9507    0.5715   27.6873 C   0  0  0  0  0  0  0  0  0  0  0  0
    1.7876    1.5140   26.6812 C   0  0  0  0  0  0  0  0  0  0  0  0
    2.8844    2.2007   25.8353 C   0  0  0  0  0  0  0  0  0  0  0  0
    3.1358    1.6216   24.3904 C   0  0  0  0  0  0  0  0  0  0  0  0
    4.6035    1.7890   23.7618 C   0  0  0  0  0  0  0  0  0  0  0  0
    5.3734    2.2120   24.6099 O   0  0  0  0  0  0  0  0  0  0  0  0
    4.8476    1.5048   22.1454 N   0  0  0  0  0  0  0  0  0  0  0  0
    6.5009    1.8913   20.9445 C   0  0  0  0  0  0  0  0  0  0  0  0
    7.6011    1.8230   19.3645 C   0  0  0  0  0  0  0  0  0  0  0  0
    7.7749    3.2835   18.7550 C   0  0  0  0  0  0  0  0  0  0  0  0
    7.7997    0.9606   18.2208 N   0  0  0  0  0  0  0  0  0  0  0  0
    8.7675    1.0302   17.1323 C   0  0  0  0  0  0  0  0  0  0  0  0
    9.6922    1.7718   16.9579 O   0  0  0  0  0  0  0  0  0  0  0  0
    8.5225    0.0715   15.9461 C   0  0  0  0  0  0  0  0  0  0  0  0
    9.7997   -0.5764   15.4797 C   0  0  0  0  0  0  0  0  0  0  0  0
   10.1459   -1.8441   15.0764 C   0  0  0  0  0  0  0  0  0  0  0  0
   11.5073   -1.7693   14.7418 C   0  0  0  0  0  0  0  0  0  0  0  0
   11.9806   -0.5345   14.8928 N   0  0  0  0  0  0  0  0  0  0  0  0
   10.8940    0.2258   15.2956 O   0  0  0  0  0  0  0  0  0  0  0  0
    0.1283    1.9547   26.5662 S   0  0  0  0  0  0  0  0  0  0  0  0
   -2.2871    1.7700   28.1828 H   0  0  0  0  0  0  0  0  0  0  0  0
   -1.8634    0.4483   29.2878 H   0  0  0  0  0  0  0  0  0  0  0  0
   -2.3020    0.0901   27.6087 H   0  0  0  0  0  0  0  0  0  0  0  0
    0.6667   -0.4907   29.1645 H   0  0  0  0  0  0  0  0  0  0  0  0
    2.9194    0.1614   27.9488 H   0  0  0  0  0  0  0  0  0  0  0  0
    2.6570    3.2707   25.7478 H   0  0  0  0  0  0  0  0  0  0  0  0
    3.8110    2.1402   26.4198 H   0  0  0  0  0  0  0  0  0  0  0  0
    2.9787    0.5589   24.5839 H   0  0  0  0  0  0  0  0  0  0  0  0
    2.4193    2.0833   23.7114 H   0  0  0  0  0  0  0  0  0  0  0  0
    4.0074    1.0673   21.7401 H   0  0  0  0  0  0  0  0  0  0  0  0
    6.3051    3.0063   20.6901 H   0  0  0  0  0  0  0  0  0  0  0  0
    7.5184    1.8343   21.2206 H   0  0  0  0  0  0  0  0  0  0  0  0
    8.5889    1.6808   19.8268 H   0  0  0  0  0  0  0  0  0  0  0  0
    7.2620    3.3758   17.7910 H   0  0  0  0  0  0  0  0  0  0  0  0
    8.8360    3.4991   18.5853 H   0  0  0  0  0  0  0  0  0  0  0  0
    7.3945    4.0942   19.3755 H   0  0  0  0  0  0  0  0  0  0  0  0
    7.1000    0.2600   17.9984 H   0  0  0  0  0  0  0  0  0  0  0  0
    7.7425   -0.6595   16.1342 H   0  0  0  0  0  0  0  0  0  0  0  0
    8.1408    0.6943   15.1260 H   0  0  0  0  0  0  0  0  0  0  0  0
    9.4960   -2.6942   14.9723 H   0  0  0  0  0  0  0  0  0  0  0  0
   12.1650   -2.5447   14.3756 H   0  0  0  0  0  0  0  0  0  0  0  0
  1  2  1  0
  2  3  2  0
  3  4  1  0
  4  5  2  0
  5  6  1  0
  6  7  1  0
  7  8  1  0
  8  9  2  0
  8 10  1  0
 10 11  1  0
 11 12  1  0
 12 13  1  0
 12 14  1  0
 14 15  1  0
 15 16  2  0
 15 17  1  0
 17 18  1  0
 18 19  2  0
 19 20  1  0
 20 21  2  0
 21 22  1  0
  5 23  1  0
 23  2  1  0
 22 18  1  0
  1 24  1  0
  1 25  1  0
  1 26  1  0
  3 27  1  0
  4 28  1  0
  6 29  1  0
  6 30  1  0
  7 31  1  0
  7 32  1  0
 10 33  1  0
 11 34  1  0
 11 35  1  0
 12 36  1  0
 13 37  1  0
 13 38  1  0
 13 39  1  0
 14 40  1  0
 17 41  1  0
 17 42  1  0
 19 43  1  0
 20 44  1  0
M  END
>  <Energy>  (372) 
318.38120254678449

>  <compound_id>  (372) 
39895

>  <target_id>  (372) 
1

>  <reference_id>  (372) 
59

>  <inspiration_ids>  (372) 
[76, 59]

>  <energy_score>  (372) 
278.68022239828645

>  <distance_score>  (372) 
8.151858157507139

>  <path>  (372) 
/opt/xchem-fragalysis-2/maxwin/BulkDock/SCRATCH/511017/C39895-P59/C39895-P59.minimised.mol

>  <scratch_subdir>  (372) 
/opt/xchem-fragalysis-2/maxwin/BulkDock/SCRATCH/511017/C39895-P59

>  <fragmenstein_runtime>  (372) 
9.061856508255005

>  <fragmenstein_outcome>  (372) 
too moved

>  <fragmenstein_mode>  (372) 
expansion

>  <fragmenstein_error>  (372) 


$$$$
C39898-P76
     RDKit          3D

 44 45  0  0  0  0  0  0  0  0999 V2000
    9.0366    5.1553   16.1926 C   0  0  0  0  0  0  0  0  0  0  0  0
    8.7996    5.0289   17.6991 C   0  0  0  0  0  0  0  0  0  0  0  0
    9.3128    3.7592   18.1889 N   0  0  0  0  0  0  0  0  0  0  0  0
    8.3793    2.6580   18.5163 C   0  0  0  0  0  0  0  0  0  0  0  0
    8.4517    2.1992   19.9681 C   0  0  0  0  0  0  0  0  0  0  0  0
    7.4319    1.3247   20.5217 N   0  0  0  0  0  0  0  0  0  0  0  0
    7.1406   -0.2768   20.3010 C   0  0  0  0  0  0  0  0  0  0  0  0
    7.7185   -0.9657   19.5415 O   0  0  0  0  0  0  0  0  0  0  0  0
    5.7994   -1.2003   21.5178 C   0  0  0  0  0  0  0  0  0  0  0  0
    5.0282   -1.7190   23.2263 C   0  0  0  0  0  0  0  0  0  0  0  0
    3.7542   -2.0707   23.7884 C   0  0  0  0  0  0  0  0  0  0  0  0
    3.7368   -1.7761   25.1615 C   0  0  0  0  0  0  0  0  0  0  0  0
    4.9461   -1.4208   25.5412 N   0  0  0  0  0  0  0  0  0  0  0  0
    5.7451   -1.8517   24.4336 O   0  0  0  0  0  0  0  0  0  0  0  0
   10.6848    3.6573   18.3200 C   0  0  0  0  0  0  0  0  0  0  0  0
   11.3511    3.2541   17.3711 O   0  0  0  0  0  0  0  0  0  0  0  0
   11.3160    4.1603   19.6128 C   0  0  0  0  0  0  0  0  0  0  0  0
   12.5624    3.3724   19.9424 C   0  0  0  0  0  0  0  0  0  0  0  0
   13.6948    3.1680   19.1723 C   0  0  0  0  0  0  0  0  0  0  0  0
   14.6237    2.2782   19.7849 C   0  0  0  0  0  0  0  0  0  0  0  0
   14.2112    1.8834   21.0394 C   0  0  0  0  0  0  0  0  0  0  0  0
   14.8866    0.9594   21.9937 C   0  0  0  0  0  0  0  0  0  0  0  0
   12.7212    2.6108   21.4713 S   0  0  0  0  0  0  0  0  0  0  0  0
    8.5735    4.3221   15.6538 H   0  0  0  0  0  0  0  0  0  0  0  0
   10.1041    5.1628   15.9516 H   0  0  0  0  0  0  0  0  0  0  0  0
    8.6023    6.0891   15.8222 H   0  0  0  0  0  0  0  0  0  0  0  0
    9.3291    5.8417   18.2094 H   0  0  0  0  0  0  0  0  0  0  0  0
    7.7353    5.1206   17.9370 H   0  0  0  0  0  0  0  0  0  0  0  0
    7.3719    3.0066   18.2833 H   0  0  0  0  0  0  0  0  0  0  0  0
    8.5965    1.8279   17.8489 H   0  0  0  0  0  0  0  0  0  0  0  0
    9.4099    1.7478   20.2095 H   0  0  0  0  0  0  0  0  0  0  0  0
    8.3960    3.0973   20.5966 H   0  0  0  0  0  0  0  0  0  0  0  0
    6.8675    1.6538   21.2771 H   0  0  0  0  0  0  0  0  0  0  0  0
    5.0816   -0.3733   21.4523 H   0  0  0  0  0  0  0  0  0  0  0  0
    5.6739   -2.2207   21.0995 H   0  0  0  0  0  0  0  0  0  0  0  0
    2.8690   -2.4168   23.2923 H   0  0  0  0  0  0  0  0  0  0  0  0
    2.9261   -1.8002   25.8712 H   0  0  0  0  0  0  0  0  0  0  0  0
   10.5837    4.1126   20.4244 H   0  0  0  0  0  0  0  0  0  0  0  0
   11.5807    5.2140   19.4678 H   0  0  0  0  0  0  0  0  0  0  0  0
   13.8219    3.5861   18.1793 H   0  0  0  0  0  0  0  0  0  0  0  0
   15.5475    1.9490   19.3249 H   0  0  0  0  0  0  0  0  0  0  0  0
   15.1346    1.4774   22.9259 H   0  0  0  0  0  0  0  0  0  0  0  0
   14.2441    0.1047   22.2284 H   0  0  0  0  0  0  0  0  0  0  0  0
   15.8176    0.5708   21.5682 H   0  0  0  0  0  0  0  0  0  0  0  0
  1  2  1  0
  2  3  1  0
  3  4  1  0
  4  5  1  0
  5  6  1  0
  6  7  1  0
  7  8  2  0
  7  9  1  0
  9 10  1  0
 10 11  2  0
 11 12  1  0
 12 13  2  0
 13 14  1  0
  3 15  1  0
 15 16  2  0
 15 17  1  0
 17 18  1  0
 18 19  2  0
 19 20  1  0
 20 21  2  0
 21 22  1  0
 21 23  1  0
 14 10  1  0
 23 18  1  0
  1 24  1  0
  1 25  1  0
  1 26  1  0
  2 27  1  0
  2 28  1  0
  4 29  1  0
  4 30  1  0
  5 31  1  0
  5 32  1  0
  6 33  1  0
  9 34  1  0
  9 35  1  0
 11 36  1  0
 12 37  1  0
 17 38  1  0
 17 39  1  0
 19 40  1  0
 20 41  1  0
 22 42  1  0
 22 43  1  0
 22 44  1  0
M  END
>  <Energy>  (373) 
272.01078398139657

>  <compound_id>  (373) 
39898

>  <target_id>  (373) 
1

>  <reference_id>  (373) 
76

>  <inspiration_ids>  (373) 
[76, 59]

>  <energy_score>  (373) 
202.42444658384477

>  <distance_score>  (373) 
7.744179467877905

>  <path>  (373) 
/opt/xchem-fragalysis-2/maxwin/BulkDock/SCRATCH/511017/C39898-P76/C39898-P76.minimised.mol

>  <scratch_subdir>  (373) 
/opt/xchem-fragalysis-2/maxwin/BulkDock/SCRATCH/511017/C39898-P76

>  <fragmenstein_runtime>  (373) 
8.03762149810791

>  <fragmenstein_outcome>  (373) 
too moved

>  <fragmenstein_mode>  (373) 
expansion

>  <fragmenstein_error>  (373) 


$$$$
C39898-P59
     RDKit          3D

 44 45  0  0  0  0  0  0  0  0999 V2000
    9.3589    6.6625   18.6653 C   0  0  0  0  0  0  0  0  0  0  0  0
    8.6844    5.6360   19.5778 C   0  0  0  0  0  0  0  0  0  0  0  0
    9.4582    4.4031   19.5640 N   0  0  0  0  0  0  0  0  0  0  0  0
   10.6620    4.2584   20.4199 C   0  0  0  0  0  0  0  0  0  0  0  0
   10.6688    4.8621   21.8793 C   0  0  0  0  0  0  0  0  0  0  0  0
   10.1638    4.0463   23.0056 N   0  0  0  0  0  0  0  0  0  0  0  0
    9.5672    4.4434   24.2905 C   0  0  0  0  0  0  0  0  0  0  0  0
    9.2691    5.5268   24.7106 O   0  0  0  0  0  0  0  0  0  0  0  0
    9.4061    3.2170   25.2473 C   0  0  0  0  0  0  0  0  0  0  0  0
    8.0819    3.0474   25.9721 C   0  0  0  0  0  0  0  0  0  0  0  0
    7.5113    1.9638   26.6197 C   0  0  0  0  0  0  0  0  0  0  0  0
    6.2629    2.4247   27.0749 C   0  0  0  0  0  0  0  0  0  0  0  0
    6.0700    3.7057   26.7624 N   0  0  0  0  0  0  0  0  0  0  0  0
    7.2166    4.1000   26.0763 O   0  0  0  0  0  0  0  0  0  0  0  0
    8.9878    3.3953   18.7014 C   0  0  0  0  0  0  0  0  0  0  0  0
    8.1777    2.5620   19.1052 O   0  0  0  0  0  0  0  0  0  0  0  0
    9.4476    3.4745   17.2321 C   0  0  0  0  0  0  0  0  0  0  0  0
    9.6800    2.1703   16.4886 C   0  0  0  0  0  0  0  0  0  0  0  0
    9.0440    0.9457   16.5672 C   0  0  0  0  0  0  0  0  0  0  0  0
    9.5986   -0.0310   15.6832 C   0  0  0  0  0  0  0  0  0  0  0  0
   10.6676    0.4638   14.9702 C   0  0  0  0  0  0  0  0  0  0  0  0
   11.5787   -0.2456   14.0311 C   0  0  0  0  0  0  0  0  0  0  0  0
   10.8521    2.1424   15.2184 S   0  0  0  0  0  0  0  0  0  0  0  0
    9.4011    6.3165   17.6287 H   0  0  0  0  0  0  0  0  0  0  0  0
   10.3814    6.8739   18.9942 H   0  0  0  0  0  0  0  0  0  0  0  0
    8.7963    7.6012   18.6817 H   0  0  0  0  0  0  0  0  0  0  0  0
    8.5793    6.0256   20.5914 H   0  0  0  0  0  0  0  0  0  0  0  0
    7.6771    5.4357   19.1931 H   0  0  0  0  0  0  0  0  0  0  0  0
   10.8948    3.1933   20.4976 H   0  0  0  0  0  0  0  0  0  0  0  0
   11.4667    4.7534   19.8646 H   0  0  0  0  0  0  0  0  0  0  0  0
   11.7206    5.0314   22.1414 H   0  0  0  0  0  0  0  0  0  0  0  0
   10.1864    5.8414   21.9278 H   0  0  0  0  0  0  0  0  0  0  0  0
   10.3566    3.0512   23.0223 H   0  0  0  0  0  0  0  0  0  0  0  0
    9.6237    2.2862   24.7150 H   0  0  0  0  0  0  0  0  0  0  0  0
   10.1924    3.3232   26.0059 H   0  0  0  0  0  0  0  0  0  0  0  0
    7.9350    0.9767   26.7282 H   0  0  0  0  0  0  0  0  0  0  0  0
    5.4929    1.8939   27.6163 H   0  0  0  0  0  0  0  0  0  0  0  0
   10.3141    4.1400   17.1532 H   0  0  0  0  0  0  0  0  0  0  0  0
    8.6350    3.9964   16.7066 H   0  0  0  0  0  0  0  0  0  0  0  0
    8.2085    0.7629   17.2335 H   0  0  0  0  0  0  0  0  0  0  0  0
    9.2408   -1.0476   15.5828 H   0  0  0  0  0  0  0  0  0  0  0  0
   12.6251   -0.0861   14.3132 H   0  0  0  0  0  0  0  0  0  0  0  0
   11.3988   -1.3252   14.0477 H   0  0  0  0  0  0  0  0  0  0  0  0
   11.4395    0.1163   13.0082 H   0  0  0  0  0  0  0  0  0  0  0  0
  1  2  1  0
  2  3  1  0
  3  4  1  0
  4  5  1  0
  5  6  1  0
  6  7  1  0
  7  8  2  0
  7  9  1  0
  9 10  1  0
 10 11  2  0
 11 12  1  0
 12 13  2  0
 13 14  1  0
  3 15  1  0
 15 16  2  0
 15 17  1  0
 17 18  1  0
 18 19  2  0
 19 20  1  0
 20 21  2  0
 21 22  1  0
 21 23  1  0
 14 10  1  0
 23 18  1  0
  1 24  1  0
  1 25  1  0
  1 26  1  0
  2 27  1  0
  2 28  1  0
  4 29  1  0
  4 30  1  0
  5 31  1  0
  5 32  1  0
  6 33  1  0
  9 34  1  0
  9 35  1  0
 11 36  1  0
 12 37  1  0
 17 38  1  0
 17 39  1  0
 19 40  1  0
 20 41  1  0
 22 42  1  0
 22 43  1  0
 22 44  1  0
M  END
>  <Energy>  (374) 
66.692894180138325

>  <compound_id>  (374) 
39898

>  <target_id>  (374) 
1

>  <reference_id>  (374) 
59

>  <inspiration_ids>  (374) 
[76, 59]

>  <energy_score>  (374) 
-2.8934432174237372

>  <distance_score>  (374) 
8.145094713223465

>  <path>  (374) 
/opt/xchem-fragalysis-2/maxwin/BulkDock/SCRATCH/511017/C39898-P59/C39898-P59.minimised.mol

>  <scratch_subdir>  (374) 
/opt/xchem-fragalysis-2/maxwin/BulkDock/SCRATCH/511017/C39898-P59

>  <fragmenstein_runtime>  (374) 
13.621477842330933

>  <fragmenstein_outcome>  (374) 
too moved

>  <fragmenstein_mode>  (374) 
expansion

>  <fragmenstein_error>  (374) 


$$$$
C39901-P76
     RDKit          3D

 47 48  0  0  0  0  0  0  0  0999 V2000
    2.1588    2.0929   27.5748 C   0  0  0  0  0  0  0  0  0  0  0  0
    3.1938    2.1688   28.6542 C   0  0  0  0  0  0  0  0  0  0  0  0
    2.6219    1.8915   30.2587 S   0  0  0  0  0  0  0  0  0  0  0  0
    4.1858    2.0415   30.8979 C   0  0  0  0  0  0  0  0  0  0  0  0
    5.1247    2.3113   29.9222 C   0  0  0  0  0  0  0  0  0  0  0  0
    4.5753    2.4245   28.5925 C   0  0  0  0  0  0  0  0  0  0  0  0
    5.4170    2.6975   27.2996 C   0  0  0  0  0  0  0  0  0  0  0  0
    6.7692    3.5278   27.4063 C   0  0  0  0  0  0  0  0  0  0  0  0
    7.1249    3.9508   28.4772 O   0  0  0  0  0  0  0  0  0  0  0  0
    7.3976    3.6442   26.0779 N   0  0  0  0  0  0  0  0  0  0  0  0
    6.8881    4.8612   25.3755 C   0  0  0  0  0  0  0  0  0  0  0  0
    8.7885    4.2542   25.6498 C   0  0  0  0  0  0  0  0  0  0  0  0
    9.6548    3.5872   24.4455 C   0  0  0  0  0  0  0  0  0  0  0  0
   10.9970    4.3643   24.3228 C   0  0  0  0  0  0  0  0  0  0  0  0
   10.0194    2.1348   24.7919 C   0  0  0  0  0  0  0  0  0  0  0  0
    9.0612    3.6210   23.0970 N   0  0  0  0  0  0  0  0  0  0  0  0
    9.5952    3.1950   21.8082 C   0  0  0  0  0  0  0  0  0  0  0  0
   10.6804    2.7832   21.5102 O   0  0  0  0  0  0  0  0  0  0  0  0
    8.5191    3.3525   20.7271 C   0  0  0  0  0  0  0  0  0  0  0  0
    9.0355    3.2238   19.3343 C   0  0  0  0  0  0  0  0  0  0  0  0
   10.1339    3.6867   18.6470 C   0  0  0  0  0  0  0  0  0  0  0  0
    9.8719    3.3506   17.3080 C   0  0  0  0  0  0  0  0  0  0  0  0
    8.7259    2.6776   17.1775 N   0  0  0  0  0  0  0  0  0  0  0  0
    8.2139    2.5754   18.4570 O   0  0  0  0  0  0  0  0  0  0  0  0
    1.4838    2.9534   27.6291 H   0  0  0  0  0  0  0  0  0  0  0  0
    1.5670    1.1746   27.6542 H   0  0  0  0  0  0  0  0  0  0  0  0
    2.6262    2.0943   26.5850 H   0  0  0  0  0  0  0  0  0  0  0  0
    4.3599    1.9242   31.9582 H   0  0  0  0  0  0  0  0  0  0  0  0
    6.1760    2.4290   30.1590 H   0  0  0  0  0  0  0  0  0  0  0  0
    4.7652    3.2312   26.6003 H   0  0  0  0  0  0  0  0  0  0  0  0
    5.6678    1.7209   26.8682 H   0  0  0  0  0  0  0  0  0  0  0  0
    6.9954    5.7740   25.9823 H   0  0  0  0  0  0  0  0  0  0  0  0
    7.1826    4.9896   24.3287 H   0  0  0  0  0  0  0  0  0  0  0  0
    5.7989    4.7306   25.3147 H   0  0  0  0  0  0  0  0  0  0  0  0
    8.8975    5.3551   25.6458 H   0  0  0  0  0  0  0  0  0  0  0  0
    9.3775    4.0160   26.5521 H   0  0  0  0  0  0  0  0  0  0  0  0
   11.6905    3.8921   23.6193 H   0  0  0  0  0  0  0  0  0  0  0  0
   11.5040    4.4202   25.2928 H   0  0  0  0  0  0  0  0  0  0  0  0
   10.8204    5.3899   23.9783 H   0  0  0  0  0  0  0  0  0  0  0  0
   10.5946    1.6453   23.9991 H   0  0  0  0  0  0  0  0  0  0  0  0
    9.1164    1.5439   24.9668 H   0  0  0  0  0  0  0  0  0  0  0  0
   10.6155    2.0870   25.7104 H   0  0  0  0  0  0  0  0  0  0  0  0
    8.0790    3.8309   22.9943 H   0  0  0  0  0  0  0  0  0  0  0  0
    8.0401    4.3323   20.8339 H   0  0  0  0  0  0  0  0  0  0  0  0
    7.7702    2.5771   20.8971 H   0  0  0  0  0  0  0  0  0  0  0  0
   10.9716    4.2383   19.0481 H   0  0  0  0  0  0  0  0  0  0  0  0
   10.4610    3.5608   16.4246 H   0  0  0  0  0  0  0  0  0  0  0  0
  1  2  1  0
  2  3  1  0
  3  4  1  0
  4  5  2  0
  5  6  1  0
  6  7  1  0
  7  8  1  0
  8  9  2  0
  8 10  1  0
 10 11  1  0
 10 12  1  0
 12 13  1  0
 13 14  1  0
 13 15  1  0
 13 16  1  0
 16 17  1  0
 17 18  2  0
 17 19  1  0
 19 20  1  0
 20 21  2  0
 21 22  1  0
 22 23  2  0
 23 24  1  0
  6  2  2  0
 24 20  1  0
  1 25  1  0
  1 26  1  0
  1 27  1  0
  4 28  1  0
  5 29  1  0
  7 30  1  0
  7 31  1  0
 11 32  1  0
 11 33  1  0
 11 34  1  0
 12 35  1  0
 12 36  1  0
 14 37  1  0
 14 38  1  0
 14 39  1  0
 15 40  1  0
 15 41  1  0
 15 42  1  0
 16 43  1  0
 19 44  1  0
 19 45  1  0
 21 46  1  0
 22 47  1  0
M  END
>  <Energy>  (375) 
134.95707017017733

>  <compound_id>  (375) 
39901

>  <target_id>  (375) 
1

>  <reference_id>  (375) 
76

>  <inspiration_ids>  (375) 
[76, 59]

>  <energy_score>  (375) 
30.780352211381853

>  <distance_score>  (375) 
10.351878156815758

>  <path>  (375) 
/opt/xchem-fragalysis-2/maxwin/BulkDock/SCRATCH/511017/C39901-P76/C39901-P76.minimised.mol

>  <scratch_subdir>  (375) 
/opt/xchem-fragalysis-2/maxwin/BulkDock/SCRATCH/511017/C39901-P76

>  <fragmenstein_runtime>  (375) 
9.24884819984436

>  <fragmenstein_outcome>  (375) 
too moved

>  <fragmenstein_mode>  (375) 
expansion

>  <fragmenstein_error>  (375) 


$$$$
C39901-P59
     RDKit          3D

 47 48  0  0  0  0  0  0  0  0999 V2000
    4.1949    1.3462   30.7089 C   0  0  0  0  0  0  0  0  0  0  0  0
    4.1114    0.2731   29.6718 C   0  0  0  0  0  0  0  0  0  0  0  0
    2.5967   -0.5513   29.5868 S   0  0  0  0  0  0  0  0  0  0  0  0
    3.1369   -1.5261   28.3083 C   0  0  0  0  0  0  0  0  0  0  0  0
    4.4437   -1.2525   27.9590 C   0  0  0  0  0  0  0  0  0  0  0  0
    5.0492   -0.1966   28.7380 C   0  0  0  0  0  0  0  0  0  0  0  0
    6.5375    0.2513   28.5526 C   0  0  0  0  0  0  0  0  0  0  0  0
    7.0447    0.4872   27.0745 C   0  0  0  0  0  0  0  0  0  0  0  0
    6.2267    0.5528   26.1920 O   0  0  0  0  0  0  0  0  0  0  0  0
    8.5055    0.6657   27.0355 N   0  0  0  0  0  0  0  0  0  0  0  0
    8.8550    2.0966   27.2936 C   0  0  0  0  0  0  0  0  0  0  0  0
    9.4875    0.8844   25.8063 C   0  0  0  0  0  0  0  0  0  0  0  0
   10.9894    0.3090   25.8439 C   0  0  0  0  0  0  0  0  0  0  0  0
   11.0138   -1.1310   25.2960 C   0  0  0  0  0  0  0  0  0  0  0  0
   11.5937    0.2867   27.2429 C   0  0  0  0  0  0  0  0  0  0  0  0
   11.9652    1.0407   24.9981 N   0  0  0  0  0  0  0  0  0  0  0  0
   11.8692    1.5201   23.6436 C   0  0  0  0  0  0  0  0  0  0  0  0
   10.9485    1.5216   22.8800 O   0  0  0  0  0  0  0  0  0  0  0  0
   13.2429    2.0241   23.1500 C   0  0  0  0  0  0  0  0  0  0  0  0
   13.8842    1.0842   22.1778 C   0  0  0  0  0  0  0  0  0  0  0  0
   14.7137    1.2654   21.0919 C   0  0  0  0  0  0  0  0  0  0  0  0
   14.9930   -0.0367   20.6394 C   0  0  0  0  0  0  0  0  0  0  0  0
   14.3700   -0.9580   21.3734 N   0  0  0  0  0  0  0  0  0  0  0  0
   13.6790   -0.2529   22.3451 O   0  0  0  0  0  0  0  0  0  0  0  0
    3.9498    0.9545   31.7020 H   0  0  0  0  0  0  0  0  0  0  0  0
    3.5076    2.1661   30.4743 H   0  0  0  0  0  0  0  0  0  0  0  0
    5.2041    1.7648   30.7632 H   0  0  0  0  0  0  0  0  0  0  0  0
    2.4747   -2.2535   27.8608 H   0  0  0  0  0  0  0  0  0  0  0  0
    4.9494   -1.7761   27.1560 H   0  0  0  0  0  0  0  0  0  0  0  0
    7.1713   -0.5199   29.0065 H   0  0  0  0  0  0  0  0  0  0  0  0
    6.6847    1.1865   29.1015 H   0  0  0  0  0  0  0  0  0  0  0  0
    8.4520    2.3211   28.2907 H   0  0  0  0  0  0  0  0  0  0  0  0
    9.9185    2.3413   27.3915 H   0  0  0  0  0  0  0  0  0  0  0  0
    8.3054    2.7859   26.6338 H   0  0  0  0  0  0  0  0  0  0  0  0
    8.9831    0.2523   25.0630 H   0  0  0  0  0  0  0  0  0  0  0  0
    9.4343    1.8561   25.2827 H   0  0  0  0  0  0  0  0  0  0  0  0
   10.3351   -1.7780   25.8625 H   0  0  0  0  0  0  0  0  0  0  0  0
   12.0179   -1.5687   25.3533 H   0  0  0  0  0  0  0  0  0  0  0  0
   10.7210   -1.1585   24.2508 H   0  0  0  0  0  0  0  0  0  0  0  0
   12.5694   -0.2157   27.2534 H   0  0  0  0  0  0  0  0  0  0  0  0
   10.9502   -0.2462   27.9508 H   0  0  0  0  0  0  0  0  0  0  0  0
   11.7687    1.2961   27.6293 H   0  0  0  0  0  0  0  0  0  0  0  0
   12.9258    1.1261   25.3119 H   0  0  0  0  0  0  0  0  0  0  0  0
   13.9281    2.2052   23.9845 H   0  0  0  0  0  0  0  0  0  0  0  0
   13.0744    2.9966   22.6716 H   0  0  0  0  0  0  0  0  0  0  0  0
   15.0728    2.2022   20.6933 H   0  0  0  0  0  0  0  0  0  0  0  0
   15.6110   -0.3553   19.8112 H   0  0  0  0  0  0  0  0  0  0  0  0
  1  2  1  0
  2  3  1  0
  3  4  1  0
  4  5  2  0
  5  6  1  0
  6  7  1  0
  7  8  1  0
  8  9  2  0
  8 10  1  0
 10 11  1  0
 10 12  1  0
 12 13  1  0
 13 14  1  0
 13 15  1  0
 13 16  1  0
 16 17  1  0
 17 18  2  0
 17 19  1  0
 19 20  1  0
 20 21  2  0
 21 22  1  0
 22 23  2  0
 23 24  1  0
  6  2  2  0
 24 20  1  0
  1 25  1  0
  1 26  1  0
  1 27  1  0
  4 28  1  0
  5 29  1  0
  7 30  1  0
  7 31  1  0
 11 32  1  0
 11 33  1  0
 11 34  1  0
 12 35  1  0
 12 36  1  0
 14 37  1  0
 14 38  1  0
 14 39  1  0
 15 40  1  0
 15 41  1  0
 15 42  1  0
 16 43  1  0
 19 44  1  0
 19 45  1  0
 21 46  1  0
 22 47  1  0
M  END
>  <Energy>  (376) 
134.07137725311995

>  <compound_id>  (376) 
39901

>  <target_id>  (376) 
1

>  <reference_id>  (376) 
59

>  <inspiration_ids>  (376) 
[76, 59]

>  <energy_score>  (376) 
29.894659294322537

>  <distance_score>  (376) 
10.321091163816128

>  <path>  (376) 
/opt/xchem-fragalysis-2/maxwin/BulkDock/SCRATCH/511017/C39901-P59/C39901-P59.minimised.mol

>  <scratch_subdir>  (376) 
/opt/xchem-fragalysis-2/maxwin/BulkDock/SCRATCH/511017/C39901-P59

>  <fragmenstein_runtime>  (376) 
15.003685235977173

>  <fragmenstein_outcome>  (376) 
too moved

>  <fragmenstein_mode>  (376) 
expansion

>  <fragmenstein_error>  (376) 


$$$$
C39906-P76
     RDKit          3D

 44 45  0  0  0  0  0  0  0  0999 V2000
    4.0117   -2.4185   29.8031 C   0  0  0  0  0  0  0  0  0  0  0  0
    4.5696   -1.8121   28.5068 C   0  0  0  0  0  0  0  0  0  0  0  0
    4.1712   -0.3602   28.4976 N   0  0  0  0  0  0  0  0  0  0  0  0
    4.7819   -0.4300   27.0842 C   0  0  0  0  0  0  0  0  0  0  0  0
    3.7042   -0.5704   25.9858 C   0  0  0  0  0  0  0  0  0  0  0  0
    4.2707   -0.5389   24.6631 N   0  0  0  0  0  0  0  0  0  0  0  0
    4.2250   -1.5369   23.5428 C   0  0  0  0  0  0  0  0  0  0  0  0
    3.6192   -2.5592   23.5023 O   0  0  0  0  0  0  0  0  0  0  0  0
    5.3669   -1.3611   21.9118 C   0  0  0  0  0  0  0  0  0  0  0  0
    6.4415   -0.0990   20.7800 C   0  0  0  0  0  0  0  0  0  0  0  0
    7.1372   -0.3885   19.5948 C   0  0  0  0  0  0  0  0  0  0  0  0
    8.2756    0.5223   18.8197 S   0  0  0  0  0  0  0  0  0  0  0  0
    8.3703    1.7644   19.8657 C   0  0  0  0  0  0  0  0  0  0  0  0
    9.2767    2.9223   19.6649 C   0  0  0  0  0  0  0  0  0  0  0  0
    7.3688    1.5230   20.7592 C   0  0  0  0  0  0  0  0  0  0  0  0
    4.7056    0.7586   29.2099 C   0  0  0  0  0  0  0  0  0  0  0  0
    5.6672    0.8415   29.9294 O   0  0  0  0  0  0  0  0  0  0  0  0
    3.7891    1.9631   29.0029 C   0  0  0  0  0  0  0  0  0  0  0  0
    2.9753    2.1769   30.2211 C   0  0  0  0  0  0  0  0  0  0  0  0
    3.2613    2.5514   31.5123 C   0  0  0  0  0  0  0  0  0  0  0  0
    2.0093    2.5653   32.1487 C   0  0  0  0  0  0  0  0  0  0  0  0
    1.0180    2.2323   31.3184 N   0  0  0  0  0  0  0  0  0  0  0  0
    1.6317    1.9854   30.0989 O   0  0  0  0  0  0  0  0  0  0  0  0
    4.4130   -1.9056   30.6837 H   0  0  0  0  0  0  0  0  0  0  0  0
    4.2781   -3.4777   29.8726 H   0  0  0  0  0  0  0  0  0  0  0  0
    2.9201   -2.3338   29.8333 H   0  0  0  0  0  0  0  0  0  0  0  0
    4.1251   -2.4189   27.7105 H   0  0  0  0  0  0  0  0  0  0  0  0
    5.6600   -1.9362   28.6010 H   0  0  0  0  0  0  0  0  0  0  0  0
    5.6875   -1.0357   26.8988 H   0  0  0  0  0  0  0  0  0  0  0  0
    5.1979    0.5786   26.9159 H   0  0  0  0  0  0  0  0  0  0  0  0
    3.1296   -1.4949   26.0860 H   0  0  0  0  0  0  0  0  0  0  0  0
    3.0047    0.2680   26.0565 H   0  0  0  0  0  0  0  0  0  0  0  0
    4.7840    0.2418   24.3698 H   0  0  0  0  0  0  0  0  0  0  0  0
    5.9511   -1.8196   22.6786 H   0  0  0  0  0  0  0  0  0  0  0  0
    5.4447   -2.2924   21.3134 H   0  0  0  0  0  0  0  0  0  0  0  0
    6.7308   -1.0316   18.8758 H   0  0  0  0  0  0  0  0  0  0  0  0
    8.7574    3.8573   19.9010 H   0  0  0  0  0  0  0  0  0  0  0  0
   10.1438    2.8426   20.3286 H   0  0  0  0  0  0  0  0  0  0  0  0
    9.6384    2.9977   18.6340 H   0  0  0  0  0  0  0  0  0  0  0  0
    7.0387    2.4003   21.2716 H   0  0  0  0  0  0  0  0  0  0  0  0
    3.1479    1.8220   28.1259 H   0  0  0  0  0  0  0  0  0  0  0  0
    4.4174    2.8375   28.7993 H   0  0  0  0  0  0  0  0  0  0  0  0
    4.2343    2.7688   31.9276 H   0  0  0  0  0  0  0  0  0  0  0  0
    1.7737    2.8018   33.1765 H   0  0  0  0  0  0  0  0  0  0  0  0
  1  2  1  0
  2  3  1  0
  3  4  1  0
  4  5  1  0
  5  6  1  0
  6  7  1  0
  7  8  2  0
  7  9  1  0
  9 10  1  0
 10 11  2  0
 11 12  1  0
 12 13  1  0
 13 14  1  0
 13 15  2  0
  3 16  1  0
 16 17  2  0
 16 18  1  0
 18 19  1  0
 19 20  2  0
 20 21  1  0
 21 22  2  0
 22 23  1  0
 15 10  1  0
 23 19  1  0
  1 24  1  0
  1 25  1  0
  1 26  1  0
  2 27  1  0
  2 28  1  0
  4 29  1  0
  4 30  1  0
  5 31  1  0
  5 32  1  0
  6 33  1  0
  9 34  1  0
  9 35  1  0
 11 36  1  0
 14 37  1  0
 14 38  1  0
 14 39  1  0
 15 40  1  0
 18 41  1  0
 18 42  1  0
 20 43  1  0
 21 44  1  0
M  END
>  <Energy>  (377) 
377.28347967468142

>  <compound_id>  (377) 
39906

>  <target_id>  (377) 
1

>  <reference_id>  (377) 
76

>  <inspiration_ids>  (377) 
[76, 59]

>  <energy_score>  (377) 
301.3856347972488

>  <distance_score>  (377) 
9.906439044403612

>  <path>  (377) 
/opt/xchem-fragalysis-2/maxwin/BulkDock/SCRATCH/511017/C39906-P76/C39906-P76.minimised.mol

>  <scratch_subdir>  (377) 
/opt/xchem-fragalysis-2/maxwin/BulkDock/SCRATCH/511017/C39906-P76

>  <fragmenstein_runtime>  (377) 
15.604584693908691

>  <fragmenstein_outcome>  (377) 
too moved

>  <fragmenstein_mode>  (377) 
expansion

>  <fragmenstein_error>  (377) 


$$$$
C39906-P59
     RDKit          3D

 44 45  0  0  0  0  0  0  0  0999 V2000
    5.4343  -16.3882   18.0688 C   0  0  0  0  0  0  0  0  0  0  0  0
    4.7833  -15.0035   17.9354 C   0  0  0  0  0  0  0  0  0  0  0  0
    4.9515  -14.0852   19.1289 N   0  0  0  0  0  0  0  0  0  0  0  0
    6.1234  -13.5664   18.2888 C   0  0  0  0  0  0  0  0  0  0  0  0
    5.7509  -12.3038   17.4624 C   0  0  0  0  0  0  0  0  0  0  0  0
    6.8932  -11.7151   16.8056 N   0  0  0  0  0  0  0  0  0  0  0  0
    7.8830  -12.2930   15.9381 C   0  0  0  0  0  0  0  0  0  0  0  0
    8.0593  -13.4288   15.6007 O   0  0  0  0  0  0  0  0  0  0  0  0
    8.8583  -11.2173   15.4497 C   0  0  0  0  0  0  0  0  0  0  0  0
    8.4933  -10.6975   14.0928 C   0  0  0  0  0  0  0  0  0  0  0  0
    9.0322  -11.1840   12.9168 C   0  0  0  0  0  0  0  0  0  0  0  0
    8.4590  -10.3698   11.5308 S   0  0  0  0  0  0  0  0  0  0  0  0
    7.5236   -9.2953   12.4791 C   0  0  0  0  0  0  0  0  0  0  0  0
    6.8349   -8.1520   11.8237 C   0  0  0  0  0  0  0  0  0  0  0  0
    7.5721   -9.6294   13.8183 C   0  0  0  0  0  0  0  0  0  0  0  0
    5.3890  -14.3609   20.4687 C   0  0  0  0  0  0  0  0  0  0  0  0
    5.8191  -15.3728   20.9590 O   0  0  0  0  0  0  0  0  0  0  0  0
    5.1898  -13.1188   21.3302 C   0  0  0  0  0  0  0  0  0  0  0  0
    3.8581  -13.1703   21.9681 C   0  0  0  0  0  0  0  0  0  0  0  0
    3.3760  -13.6862   23.1465 C   0  0  0  0  0  0  0  0  0  0  0  0
    2.0097  -13.3567   23.1271 C   0  0  0  0  0  0  0  0  0  0  0  0
    1.6700  -12.6852   22.0242 N   0  0  0  0  0  0  0  0  0  0  0  0
    2.8380  -12.5774   21.2886 O   0  0  0  0  0  0  0  0  0  0  0  0
    5.2008  -16.9927   17.1863 H   0  0  0  0  0  0  0  0  0  0  0  0
    6.5220  -16.3406   18.1688 H   0  0  0  0  0  0  0  0  0  0  0  0
    5.0413  -16.9190   18.9423 H   0  0  0  0  0  0  0  0  0  0  0  0
    4.8460  -14.5928   16.9153 H   0  0  0  0  0  0  0  0  0  0  0  0
    3.7050  -15.2205   18.0007 H   0  0  0  0  0  0  0  0  0  0  0  0
    6.7675  -14.2842   17.7552 H   0  0  0  0  0  0  0  0  0  0  0  0
    6.8465  -13.1852   19.0302 H   0  0  0  0  0  0  0  0  0  0  0  0
    5.0161  -12.5263   16.6836 H   0  0  0  0  0  0  0  0  0  0  0  0
    5.3185  -11.5396   18.1171 H   0  0  0  0  0  0  0  0  0  0  0  0
    7.0978  -10.7260   16.9300 H   0  0  0  0  0  0  0  0  0  0  0  0
    8.9414  -10.4047   16.1730 H   0  0  0  0  0  0  0  0  0  0  0  0
    9.8574  -11.6727   15.4226 H   0  0  0  0  0  0  0  0  0  0  0  0
    9.7373  -11.9964   12.8008 H   0  0  0  0  0  0  0  0  0  0  0  0
    7.5560   -7.4246   11.4484 H   0  0  0  0  0  0  0  0  0  0  0  0
    6.2318   -8.4983   10.9771 H   0  0  0  0  0  0  0  0  0  0  0  0
    6.1520   -7.6557   12.5187 H   0  0  0  0  0  0  0  0  0  0  0  0
    7.0218   -9.0863   14.5737 H   0  0  0  0  0  0  0  0  0  0  0  0
    5.9843  -13.0912   22.0844 H   0  0  0  0  0  0  0  0  0  0  0  0
    5.3004  -12.2130   20.7266 H   0  0  0  0  0  0  0  0  0  0  0  0
    3.9301  -14.2204   23.9035 H   0  0  0  0  0  0  0  0  0  0  0  0
    1.2484  -13.5720   23.8635 H   0  0  0  0  0  0  0  0  0  0  0  0
  1  2  1  0
  2  3  1  0
  3  4  1  0
  4  5  1  0
  5  6  1  0
  6  7  1  0
  7  8  2  0
  7  9  1  0
  9 10  1  0
 10 11  2  0
 11 12  1  0
 12 13  1  0
 13 14  1  0
 13 15  2  0
  3 16  1  0
 16 17  2  0
 16 18  1  0
 18 19  1  0
 19 20  2  0
 20 21  1  0
 21 22  2  0
 22 23  1  0
 15 10  1  0
 23 19  1  0
  1 24  1  0
  1 25  1  0
  1 26  1  0
  2 27  1  0
  2 28  1  0
  4 29  1  0
  4 30  1  0
  5 31  1  0
  5 32  1  0
  6 33  1  0
  9 34  1  0
  9 35  1  0
 11 36  1  0
 14 37  1  0
 14 38  1  0
 14 39  1  0
 15 40  1  0
 18 41  1  0
 18 42  1  0
 20 43  1  0
 21 44  1  0
M  END
>  <Energy>  (378) 
108.37368744336078

>  <compound_id>  (378) 
39906

>  <target_id>  (378) 
1

>  <reference_id>  (378) 
59

>  <inspiration_ids>  (378) 
[76, 59]

>  <energy_score>  (378) 
32.475842565927735

>  <distance_score>  (378) 
17.533240430169577

>  <path>  (378) 
/opt/xchem-fragalysis-2/maxwin/BulkDock/SCRATCH/511017/C39906-P59/C39906-P59.minimised.mol

>  <scratch_subdir>  (378) 
/opt/xchem-fragalysis-2/maxwin/BulkDock/SCRATCH/511017/C39906-P59

>  <fragmenstein_runtime>  (378) 
28.50224542617798

>  <fragmenstein_outcome>  (378) 
too moved

>  <fragmenstein_mode>  (378) 
expansion

>  <fragmenstein_error>  (378) 


$$$$
C39909-P76
     RDKit          3D

 44 45  0  0  0  0  0  0  0  0999 V2000
   -0.7420    3.1799   27.6892 C   0  0  0  0  0  0  0  0  0  0  0  0
   -0.0619    1.8968   28.0270 C   0  0  0  0  0  0  0  0  0  0  0  0
   -0.5766    0.8031   28.6897 C   0  0  0  0  0  0  0  0  0  0  0  0
    0.3847   -0.2378   28.8233 C   0  0  0  0  0  0  0  0  0  0  0  0
    1.5981    0.0749   28.2330 C   0  0  0  0  0  0  0  0  0  0  0  0
    2.7877   -0.7900   28.1843 C   0  0  0  0  0  0  0  0  0  0  0  0
    2.9617   -1.5287   29.1094 O   0  0  0  0  0  0  0  0  0  0  0  0
    3.5022   -0.6532   26.9512 N   0  0  0  0  0  0  0  0  0  0  0  0
    4.5933   -1.4247   26.3965 C   0  0  0  0  0  0  0  0  0  0  0  0
    5.9905   -0.9020   26.7281 C   0  0  0  0  0  0  0  0  0  0  0  0
    7.2541   -1.9306   26.7389 C   0  0  0  0  0  0  0  0  0  0  0  0
    7.0091   -2.6868   28.1542 C   0  0  0  0  0  0  0  0  0  0  0  0
    7.9569   -2.5998   25.2269 N   0  0  0  0  0  0  0  0  0  0  0  0
    8.7885   -3.4367   26.3253 C   0  0  0  0  0  0  0  0  0  0  0  0
    7.2292   -3.6833   23.9091 C   0  0  0  0  0  0  0  0  0  0  0  0
    6.1694   -4.0803   24.1115 O   0  0  0  0  0  0  0  0  0  0  0  0
    7.7451   -4.1898   22.1972 C   0  0  0  0  0  0  0  0  0  0  0  0
    8.7193   -3.5832   20.5478 C   0  0  0  0  0  0  0  0  0  0  0  0
   10.7498   -3.5891   20.7536 C   0  0  0  0  0  0  0  0  0  0  0  0
   11.0087   -5.3321   20.5882 C   0  0  0  0  0  0  0  0  0  0  0  0
    9.7305   -5.8816   20.4295 N   0  0  0  0  0  0  0  0  0  0  0  0
    8.7382   -5.0095   19.9771 O   0  0  0  0  0  0  0  0  0  0  0  0
    1.5761    1.6558   27.5887 S   0  0  0  0  0  0  0  0  0  0  0  0
   -0.4841    3.5145   26.6789 H   0  0  0  0  0  0  0  0  0  0  0  0
   -1.8302    3.0639   27.7293 H   0  0  0  0  0  0  0  0  0  0  0  0
   -0.4559    3.9619   28.3999 H   0  0  0  0  0  0  0  0  0  0  0  0
   -1.5927    0.7474   29.0605 H   0  0  0  0  0  0  0  0  0  0  0  0
    0.2001   -1.1912   29.3051 H   0  0  0  0  0  0  0  0  0  0  0  0
    3.0222    0.0203   26.3647 H   0  0  0  0  0  0  0  0  0  0  0  0
    4.4362   -1.5182   25.3186 H   0  0  0  0  0  0  0  0  0  0  0  0
    4.4270   -2.3833   26.8848 H   0  0  0  0  0  0  0  0  0  0  0  0
    6.2372    0.0105   26.1917 H   0  0  0  0  0  0  0  0  0  0  0  0
    5.9242   -0.4874   27.7462 H   0  0  0  0  0  0  0  0  0  0  0  0
    8.0638   -1.2137   26.9655 H   0  0  0  0  0  0  0  0  0  0  0  0
    6.3834   -3.5770   28.1042 H   0  0  0  0  0  0  0  0  0  0  0  0
    7.9580   -2.9544   28.6343 H   0  0  0  0  0  0  0  0  0  0  0  0
    6.5343   -2.0215   28.8844 H   0  0  0  0  0  0  0  0  0  0  0  0
    9.3982   -2.7142   26.8882 H   0  0  0  0  0  0  0  0  0  0  0  0
    8.2013   -4.0729   26.9811 H   0  0  0  0  0  0  0  0  0  0  0  0
    9.5758   -4.1314   26.0216 H   0  0  0  0  0  0  0  0  0  0  0  0
    8.0810   -5.1239   22.7925 H   0  0  0  0  0  0  0  0  0  0  0  0
    7.5107   -5.1996   21.7371 H   0  0  0  0  0  0  0  0  0  0  0  0
   11.3839   -3.4538   21.6637 H   0  0  0  0  0  0  0  0  0  0  0  0
   11.8964   -5.8406   20.9395 H   0  0  0  0  0  0  0  0  0  0  0  0
  1  2  1  0
  2  3  2  0
  3  4  1  0
  4  5  2  0
  5  6  1  0
  6  7  2  0
  6  8  1  0
  8  9  1  0
  9 10  1  0
 10 11  1  0
 11 12  1  0
 11 13  1  0
 13 14  1  0
 13 15  1  0
 15 16  2  0
 15 17  1  0
 17 18  1  0
 18 19  2  0
 19 20  1  0
 20 21  2  0
 21 22  1  0
  5 23  1  0
 23  2  1  0
 22 18  1  0
  1 24  1  0
  1 25  1  0
  1 26  1  0
  3 27  1  0
  4 28  1  0
  8 29  1  0
  9 30  1  0
  9 31  1  0
 10 32  1  0
 10 33  1  0
 11 34  1  0
 12 35  1  0
 12 36  1  0
 12 37  1  0
 14 38  1  0
 14 39  1  0
 14 40  1  0
 17 41  1  0
 17 42  1  0
 19 43  1  0
 20 44  1  0
M  END
>  <Energy>  (379) 
664.42226267404465

>  <compound_id>  (379) 
39909

>  <target_id>  (379) 
1

>  <reference_id>  (379) 
76

>  <inspiration_ids>  (379) 
[76, 59]

>  <energy_score>  (379) 
609.9497643552633

>  <distance_score>  (379) 
8.647136352612852

>  <path>  (379) 
/opt/xchem-fragalysis-2/maxwin/BulkDock/SCRATCH/511017/C39909-P76/C39909-P76.minimised.mol

>  <scratch_subdir>  (379) 
/opt/xchem-fragalysis-2/maxwin/BulkDock/SCRATCH/511017/C39909-P76

>  <fragmenstein_runtime>  (379) 
16.869041204452515

>  <fragmenstein_outcome>  (379) 
too moved

>  <fragmenstein_mode>  (379) 
expansion

>  <fragmenstein_error>  (379) 


$$$$
C39909-P59
     RDKit          3D

 44 45  0  0  0  0  0  0  0  0999 V2000
   -0.2964   -2.7861   29.1966 C   0  0  0  0  0  0  0  0  0  0  0  0
    1.1301   -2.5163   28.8618 C   0  0  0  0  0  0  0  0  0  0  0  0
    1.7967   -1.3113   28.8738 C   0  0  0  0  0  0  0  0  0  0  0  0
    3.1543   -1.4494   28.4633 C   0  0  0  0  0  0  0  0  0  0  0  0
    3.4849   -2.7471   28.1092 C   0  0  0  0  0  0  0  0  0  0  0  0
    4.7881   -3.2211   27.5951 C   0  0  0  0  0  0  0  0  0  0  0  0
    5.7711   -2.6314   27.9322 O   0  0  0  0  0  0  0  0  0  0  0  0
    4.6221   -4.3229   26.6934 N   0  0  0  0  0  0  0  0  0  0  0  0
    5.5769   -5.0048   25.8356 C   0  0  0  0  0  0  0  0  0  0  0  0
    5.2979   -6.5029   25.7249 C   0  0  0  0  0  0  0  0  0  0  0  0
    5.1799   -7.1275   24.2217 C   0  0  0  0  0  0  0  0  0  0  0  0
    4.0497   -8.2148   24.2889 C   0  0  0  0  0  0  0  0  0  0  0  0
    6.3660   -6.7605   22.9634 N   0  0  0  0  0  0  0  0  0  0  0  0
    7.4291   -7.5167   24.1491 C   0  0  0  0  0  0  0  0  0  0  0  0
    6.6046   -7.4911   21.2816 C   0  0  0  0  0  0  0  0  0  0  0  0
    5.9919   -8.4576   20.8105 O   0  0  0  0  0  0  0  0  0  0  0  0
    7.7810   -6.6901   19.8924 C   0  0  0  0  0  0  0  0  0  0  0  0
    9.6242   -5.7887   20.0259 C   0  0  0  0  0  0  0  0  0  0  0  0
   10.8777   -5.7949   21.0122 C   0  0  0  0  0  0  0  0  0  0  0  0
   12.1122   -5.2745   20.5579 C   0  0  0  0  0  0  0  0  0  0  0  0
   12.1227   -4.9662   19.2708 N   0  0  0  0  0  0  0  0  0  0  0  0
   10.5751   -5.4540   18.8152 O   0  0  0  0  0  0  0  0  0  0  0  0
    2.1627   -3.7995   28.3938 S   0  0  0  0  0  0  0  0  0  0  0  0
   -0.8818   -1.8608   29.1859 H   0  0  0  0  0  0  0  0  0  0  0  0
   -0.3776   -3.2279   30.1950 H   0  0  0  0  0  0  0  0  0  0  0  0
   -0.7479   -3.4727   28.4757 H   0  0  0  0  0  0  0  0  0  0  0  0
    1.3351   -0.3708   29.1508 H   0  0  0  0  0  0  0  0  0  0  0  0
    3.8587   -0.6279   28.3904 H   0  0  0  0  0  0  0  0  0  0  0  0
    3.6346   -4.5120   26.5833 H   0  0  0  0  0  0  0  0  0  0  0  0
    6.5772   -4.8298   26.2441 H   0  0  0  0  0  0  0  0  0  0  0  0
    5.5194   -4.5120   24.8693 H   0  0  0  0  0  0  0  0  0  0  0  0
    6.0436   -7.0519   26.3101 H   0  0  0  0  0  0  0  0  0  0  0  0
    4.3525   -6.7160   26.2437 H   0  0  0  0  0  0  0  0  0  0  0  0
    4.5628   -6.3421   23.8843 H   0  0  0  0  0  0  0  0  0  0  0  0
    4.3238   -9.0309   24.9679 H   0  0  0  0  0  0  0  0  0  0  0  0
    3.1424   -7.7856   24.7130 H   0  0  0  0  0  0  0  0  0  0  0  0
    3.7699   -8.6341   23.3207 H   0  0  0  0  0  0  0  0  0  0  0  0
    6.9577   -8.2093   24.8499 H   0  0  0  0  0  0  0  0  0  0  0  0
    7.7293   -6.7534   24.8724 H   0  0  0  0  0  0  0  0  0  0  0  0
    8.2922   -8.0965   23.7974 H   0  0  0  0  0  0  0  0  0  0  0  0
    7.1912   -5.6971   19.8222 H   0  0  0  0  0  0  0  0  0  0  0  0
    7.1607   -6.9217   18.9758 H   0  0  0  0  0  0  0  0  0  0  0  0
   10.9771   -6.4304   21.8806 H   0  0  0  0  0  0  0  0  0  0  0  0
   13.0462   -5.2067   21.0958 H   0  0  0  0  0  0  0  0  0  0  0  0
  1  2  1  0
  2  3  2  0
  3  4  1  0
  4  5  2  0
  5  6  1  0
  6  7  2  0
  6  8  1  0
  8  9  1  0
  9 10  1  0
 10 11  1  0
 11 12  1  0
 11 13  1  0
 13 14  1  0
 13 15  1  0
 15 16  2  0
 15 17  1  0
 17 18  1  0
 18 19  2  0
 19 20  1  0
 20 21  2  0
 21 22  1  0
  5 23  1  0
 23  2  1  0
 22 18  1  0
  1 24  1  0
  1 25  1  0
  1 26  1  0
  3 27  1  0
  4 28  1  0
  8 29  1  0
  9 30  1  0
  9 31  1  0
 10 32  1  0
 10 33  1  0
 11 34  1  0
 12 35  1  0
 12 36  1  0
 12 37  1  0
 14 38  1  0
 14 39  1  0
 14 40  1  0
 17 41  1  0
 17 42  1  0
 19 43  1  0
 20 44  1  0
M  END
>  <Energy>  (380) 
458.77071422616552

>  <compound_id>  (380) 
39909

>  <target_id>  (380) 
1

>  <reference_id>  (380) 
59

>  <inspiration_ids>  (380) 
[76, 59]

>  <energy_score>  (380) 
404.29821590738555

>  <distance_score>  (380) 
9.60690431763463

>  <path>  (380) 
/opt/xchem-fragalysis-2/maxwin/BulkDock/SCRATCH/511017/C39909-P59/C39909-P59.minimised.mol

>  <scratch_subdir>  (380) 
/opt/xchem-fragalysis-2/maxwin/BulkDock/SCRATCH/511017/C39909-P59

>  <fragmenstein_runtime>  (380) 
15.947771072387695

>  <fragmenstein_outcome>  (380) 
too moved

>  <fragmenstein_mode>  (380) 
expansion

>  <fragmenstein_error>  (380) 


$$$$
C75931-P93
     RDKit          3D

 46 49  0  0  0  0  0  0  0  0999 V2000
   -2.0190  -14.1577   16.6997 C   0  0  0  0  0  0  0  0  0  0  0  0
   -1.9920  -14.8917   15.3351 C   0  0  0  0  0  0  0  0  0  0  0  0
   -0.9809  -13.9178   13.8869 N   0  0  0  0  0  0  0  0  0  0  0  0
    0.0182  -14.0225   12.3917 C   0  0  0  0  0  0  0  0  0  0  0  0
    0.7874  -12.5650   11.5045 C   0  0  0  0  0  0  0  0  0  0  0  0
    0.3691  -11.3265   11.6445 N   0  0  0  0  0  0  0  0  0  0  0  0
    1.3048  -10.4050   11.1364 N   0  0  0  0  0  0  0  0  0  0  0  0
    2.5134  -10.8387   10.9331 C   0  0  0  0  0  0  0  0  0  0  0  0
    2.3607  -12.2226   10.8259 N   0  0  0  0  0  0  0  0  0  0  0  0
    3.4026  -12.8674    9.9806 C   0  0  0  0  0  0  0  0  0  0  0  0
    4.1882  -11.9088    9.0528 C   0  0  0  0  0  0  0  0  0  0  0  0
    4.8122  -10.7964    9.8776 C   0  0  0  0  0  0  0  0  0  0  0  0
    3.7063  -10.0033   10.5401 C   0  0  0  0  0  0  0  0  0  0  0  0
   -3.4998  -15.9558   15.8376 C   0  0  0  0  0  0  0  0  0  0  0  0
   -3.7146  -17.1469   15.3332 C   0  0  0  0  0  0  0  0  0  0  0  0
   -3.8446  -18.1844   16.3839 C   0  0  0  0  0  0  0  0  0  0  0  0
   -4.1604  -18.3566   17.7205 C   0  0  0  0  0  0  0  0  0  0  0  0
   -4.8607  -19.4044   18.4318 N   0  0  0  0  0  0  0  0  0  0  0  0
   -5.9903  -20.1213   18.0430 C   0  0  0  0  0  0  0  0  0  0  0  0
   -6.7634  -20.2879   19.1630 C   0  0  0  0  0  0  0  0  0  0  0  0
   -5.9105  -19.9621   20.2135 C   0  0  0  0  0  0  0  0  0  0  0  0
   -4.7404  -19.4859   19.7872 N   0  0  0  0  0  0  0  0  0  0  0  0
   -4.4668  -17.1384   18.0568 C   0  0  0  0  0  0  0  0  0  0  0  0
   -4.3106  -16.0773   17.0426 C   0  0  0  0  0  0  0  0  0  0  0  0
   -1.2212  -13.5339   17.0699 H   0  0  0  0  0  0  0  0  0  0  0  0
   -2.0124  -14.8984   17.4825 H   0  0  0  0  0  0  0  0  0  0  0  0
   -2.9067  -13.6080   16.8650 H   0  0  0  0  0  0  0  0  0  0  0  0
   -2.7077  -14.7788   14.6146 H   0  0  0  0  0  0  0  0  0  0  0  0
   -0.1948  -13.6352   14.4155 H   0  0  0  0  0  0  0  0  0  0  0  0
   -0.6019  -14.4584   11.6020 H   0  0  0  0  0  0  0  0  0  0  0  0
    0.8160  -14.7075   12.6092 H   0  0  0  0  0  0  0  0  0  0  0  0
    4.1742  -13.2487   10.6458 H   0  0  0  0  0  0  0  0  0  0  0  0
    2.9890  -13.6707    9.3754 H   0  0  0  0  0  0  0  0  0  0  0  0
    4.9749  -12.4722    8.5381 H   0  0  0  0  0  0  0  0  0  0  0  0
    3.5280  -11.4945    8.2813 H   0  0  0  0  0  0  0  0  0  0  0  0
    5.4756  -11.2266   10.6382 H   0  0  0  0  0  0  0  0  0  0  0  0
    5.4277  -10.1422    9.2505 H   0  0  0  0  0  0  0  0  0  0  0  0
    3.3534   -9.2319    9.8435 H   0  0  0  0  0  0  0  0  0  0  0  0
    4.1340   -9.4813   11.4001 H   0  0  0  0  0  0  0  0  0  0  0  0
   -3.0941  -17.4531   14.5131 H   0  0  0  0  0  0  0  0  0  0  0  0
   -2.9906  -18.6810   16.0158 H   0  0  0  0  0  0  0  0  0  0  0  0
   -6.2640  -20.2637   17.0162 H   0  0  0  0  0  0  0  0  0  0  0  0
   -7.7976  -20.5918   19.1911 H   0  0  0  0  0  0  0  0  0  0  0  0
   -6.0929  -20.0080   21.2795 H   0  0  0  0  0  0  0  0  0  0  0  0
   -5.2554  -17.1564   18.7955 H   0  0  0  0  0  0  0  0  0  0  0  0
   -5.3939  -15.9980   16.7882 H   0  0  0  0  0  0  0  0  0  0  0  0
  1  2  1  0
  2  3  1  0
  3  4  1  0
  4  5  1  0
  5  6  2  0
  6  7  1  0
  7  8  2  0
  8  9  1  0
  9 10  1  0
 10 11  1  0
 11 12  1  0
 12 13  1  0
  2 14  1  0
 14 15  2  0
 15 16  1  0
 16 17  2  0
 17 18  1  0
 18 19  1  0
 19 20  2  0
 20 21  1  0
 21 22  2  0
 17 23  1  0
 23 24  2  0
  9  5  1  0
 24 14  1  0
 13  8  1  0
 22 18  1  0
  1 25  1  0
  1 26  1  0
  1 27  1  0
  2 28  1  0
  3 29  1  0
  4 30  1  0
  4 31  1  0
 10 32  1  0
 10 33  1  0
 11 34  1  0
 11 35  1  0
 12 36  1  0
 12 37  1  0
 13 38  1  0
 13 39  1  0
 15 40  1  0
 16 41  1  0
 19 42  1  0
 20 43  1  0
 21 44  1  0
 23 45  1  0
 24 46  1  0
M  END
>  <Energy>  (381) 
609.63229198636031

>  <compound_id>  (381) 
75931

>  <target_id>  (381) 
1

>  <reference_id>  (381) 
93

>  <inspiration_ids>  (381) 
[93, 112]

>  <energy_score>  (381) 
511.57038494209576

>  <distance_score>  (381) 
13.819993166990628

>  <path>  (381) 
/opt/xchem-fragalysis-2/maxwin/BulkDock/SCRATCH/511017/C75931-P93/C75931-P93.minimised.mol

>  <scratch_subdir>  (381) 
/opt/xchem-fragalysis-2/maxwin/BulkDock/SCRATCH/511017/C75931-P93

>  <fragmenstein_runtime>  (381) 
19.668329000473022

>  <fragmenstein_outcome>  (381) 
too moved

>  <fragmenstein_mode>  (381) 
expansion

>  <fragmenstein_error>  (381) 


$$$$
C75931-P112
     RDKit          3D

 46 49  0  0  0  0  0  0  0  0999 V2000
    1.7911  -15.4926   17.8932 C   0  0  0  0  0  0  0  0  0  0  0  0
    0.8792  -14.1454   17.2968 C   0  0  0  0  0  0  0  0  0  0  0  0
    2.4641  -13.2240   17.6964 N   0  0  0  0  0  0  0  0  0  0  0  0
    3.2144  -11.5302   17.0910 C   0  0  0  0  0  0  0  0  0  0  0  0
    3.0363   -9.6822   17.3962 C   0  0  0  0  0  0  0  0  0  0  0  0
    2.4555   -9.0756   18.4371 N   0  0  0  0  0  0  0  0  0  0  0  0
    2.0936   -7.7883   18.1253 N   0  0  0  0  0  0  0  0  0  0  0  0
    2.6597   -7.4897   16.9845 C   0  0  0  0  0  0  0  0  0  0  0  0
    3.6455   -8.4998   16.7772 N   0  0  0  0  0  0  0  0  0  0  0  0
    4.8732   -7.8029   17.1714 C   0  0  0  0  0  0  0  0  0  0  0  0
    5.2261   -6.7573   16.1120 C   0  0  0  0  0  0  0  0  0  0  0  0
    4.0298   -5.9588   15.5839 C   0  0  0  0  0  0  0  0  0  0  0  0
    2.7674   -6.1213   16.4108 C   0  0  0  0  0  0  0  0  0  0  0  0
   -1.0436  -14.2652   17.5775 C   0  0  0  0  0  0  0  0  0  0  0  0
   -2.1383  -15.2208   18.1299 C   0  0  0  0  0  0  0  0  0  0  0  0
   -3.3203  -16.3683   17.1056 C   0  0  0  0  0  0  0  0  0  0  0  0
   -3.8083  -16.0536   15.8500 C   0  0  0  0  0  0  0  0  0  0  0  0
   -4.9018  -16.4868   14.4392 N   0  0  0  0  0  0  0  0  0  0  0  0
   -5.5806  -15.6530   13.0981 C   0  0  0  0  0  0  0  0  0  0  0  0
   -6.7962  -16.1508   12.7047 C   0  0  0  0  0  0  0  0  0  0  0  0
   -6.8302  -17.4406   13.1825 C   0  0  0  0  0  0  0  0  0  0  0  0
   -5.7347  -17.8417   13.8403 N   0  0  0  0  0  0  0  0  0  0  0  0
   -3.2711  -14.5598   16.1926 C   0  0  0  0  0  0  0  0  0  0  0  0
   -2.0003  -13.6690   16.9012 C   0  0  0  0  0  0  0  0  0  0  0  0
    1.1485  -16.3031   18.2222 H   0  0  0  0  0  0  0  0  0  0  0  0
    2.4709  -15.8542   17.1088 H   0  0  0  0  0  0  0  0  0  0  0  0
    2.4332  -15.2525   18.7499 H   0  0  0  0  0  0  0  0  0  0  0  0
    0.5641  -13.4414   17.9905 H   0  0  0  0  0  0  0  0  0  0  0  0
    3.2031  -13.8423   17.3556 H   0  0  0  0  0  0  0  0  0  0  0  0
    4.1431  -11.8044   17.4978 H   0  0  0  0  0  0  0  0  0  0  0  0
    3.5156  -11.4861   16.0412 H   0  0  0  0  0  0  0  0  0  0  0  0
    5.6105   -8.5225   17.4490 H   0  0  0  0  0  0  0  0  0  0  0  0
    4.6896   -7.2825   18.1262 H   0  0  0  0  0  0  0  0  0  0  0  0
    5.9398   -6.0506   16.5405 H   0  0  0  0  0  0  0  0  0  0  0  0
    5.6881   -7.2542   15.2518 H   0  0  0  0  0  0  0  0  0  0  0  0
    4.2794   -4.8946   15.5058 H   0  0  0  0  0  0  0  0  0  0  0  0
    3.8206   -6.2900   14.5596 H   0  0  0  0  0  0  0  0  0  0  0  0
    1.8833   -5.8991   15.8038 H   0  0  0  0  0  0  0  0  0  0  0  0
    2.7819   -5.3970   17.2346 H   0  0  0  0  0  0  0  0  0  0  0  0
   -1.9081  -15.6964   19.1045 H   0  0  0  0  0  0  0  0  0  0  0  0
   -3.7215  -17.2529   17.5948 H   0  0  0  0  0  0  0  0  0  0  0  0
   -4.9908  -14.7842   12.8781 H   0  0  0  0  0  0  0  0  0  0  0  0
   -7.4790  -15.6732   12.0179 H   0  0  0  0  0  0  0  0  0  0  0  0
   -7.5815  -18.1912   12.9757 H   0  0  0  0  0  0  0  0  0  0  0  0
   -3.9661  -14.0966   16.8508 H   0  0  0  0  0  0  0  0  0  0  0  0
   -2.3401  -12.7533   17.4247 H   0  0  0  0  0  0  0  0  0  0  0  0
  1  2  1  0
  2  3  1  0
  3  4  1  0
  4  5  1  0
  5  6  2  0
  6  7  1  0
  7  8  2  0
  8  9  1  0
  9 10  1  0
 10 11  1  0
 11 12  1  0
 12 13  1  0
  2 14  1  0
 14 15  2  0
 15 16  1  0
 16 17  2  0
 17 18  1  0
 18 19  1  0
 19 20  2  0
 20 21  1  0
 21 22  2  0
 17 23  1  0
 23 24  2  0
  9  5  1  0
 24 14  1  0
 13  8  1  0
 22 18  1  0
  1 25  1  0
  1 26  1  0
  1 27  1  0
  2 28  1  0
  3 29  1  0
  4 30  1  0
  4 31  1  0
 10 32  1  0
 10 33  1  0
 11 34  1  0
 11 35  1  0
 12 36  1  0
 12 37  1  0
 13 38  1  0
 13 39  1  0
 15 40  1  0
 16 41  1  0
 19 42  1  0
 20 43  1  0
 21 44  1  0
 23 45  1  0
 24 46  1  0
M  END
>  <Energy>  (382) 
875.71350360643385

>  <compound_id>  (382) 
75931

>  <target_id>  (382) 
1

>  <reference_id>  (382) 
112

>  <inspiration_ids>  (382) 
[93, 112]

>  <energy_score>  (382) 
777.6515965621677

>  <distance_score>  (382) 
12.965761054645862

>  <path>  (382) 
/opt/xchem-fragalysis-2/maxwin/BulkDock/SCRATCH/511017/C75931-P112/C75931-P112.minimised.mol

>  <scratch_subdir>  (382) 
/opt/xchem-fragalysis-2/maxwin/BulkDock/SCRATCH/511017/C75931-P112

>  <fragmenstein_runtime>  (382) 
18.933510541915894

>  <fragmenstein_outcome>  (382) 
too moved

>  <fragmenstein_mode>  (382) 
expansion

>  <fragmenstein_error>  (382) 


$$$$
C75947-P93
     RDKit          3D

 35 37  0  0  0  0  0  0  0  0999 V2000
  -10.7709  -24.5912   11.6924 C   0  0  0  0  0  0  0  0  0  0  0  0
  -10.5504  -25.8996   11.2920 C   0  0  0  0  0  0  0  0  0  0  0  0
   -9.2502  -26.3275   10.9704 C   0  0  0  0  0  0  0  0  0  0  0  0
   -8.1229  -25.4666   11.0367 C   0  0  0  0  0  0  0  0  0  0  0  0
   -6.8205  -25.9979   10.6538 N   0  0  0  0  0  0  0  0  0  0  0  0
   -6.8434  -27.2741   10.1681 N   0  0  0  0  0  0  0  0  0  0  0  0
   -5.6421  -27.5610    9.7232 N   0  0  0  0  0  0  0  0  0  0  0  0
   -4.7797  -26.5447    9.9518 N   0  0  0  0  0  0  0  0  0  0  0  0
   -5.4426  -25.5830   10.5743 C   0  0  0  0  0  0  0  0  0  0  0  0
   -4.6783  -24.4457   11.2451 C   0  0  0  0  0  0  0  0  0  0  0  0
   -3.6601  -23.6558   10.4293 N   0  0  0  0  0  0  0  0  0  0  0  0
   -2.8834  -22.5544   11.2252 C   0  0  0  0  0  0  0  0  0  0  0  0
   -1.6438  -21.7616   10.5639 C   0  0  0  0  0  0  0  0  0  0  0  0
   -0.9330  -20.6454   11.2915 N   0  0  0  0  0  0  0  0  0  0  0  0
   -1.2535  -19.2932   11.2668 C   0  0  0  0  0  0  0  0  0  0  0  0
   -0.1969  -18.5892   11.8097 C   0  0  0  0  0  0  0  0  0  0  0  0
    0.7479  -19.5760   12.1261 C   0  0  0  0  0  0  0  0  0  0  0  0
    0.3378  -20.8086   11.7848 N   0  0  0  0  0  0  0  0  0  0  0  0
   -8.3855  -24.1591   11.4383 C   0  0  0  0  0  0  0  0  0  0  0  0
   -9.6887  -23.7232   11.7636 C   0  0  0  0  0  0  0  0  0  0  0  0
  -11.7687  -24.2496   11.9493 H   0  0  0  0  0  0  0  0  0  0  0  0
  -11.3797  -26.5996   11.2259 H   0  0  0  0  0  0  0  0  0  0  0  0
   -9.1450  -27.3688   10.6632 H   0  0  0  0  0  0  0  0  0  0  0  0
   -5.4492  -23.8351   11.6589 H   0  0  0  0  0  0  0  0  0  0  0  0
   -4.1208  -24.9046   12.0690 H   0  0  0  0  0  0  0  0  0  0  0  0
   -2.9670  -24.3291   10.0994 H   0  0  0  0  0  0  0  0  0  0  0  0
   -2.5049  -23.0167   12.1434 H   0  0  0  0  0  0  0  0  0  0  0  0
   -3.6004  -21.7727   11.4770 H   0  0  0  0  0  0  0  0  0  0  0  0
   -1.9860  -21.3054    9.6268 H   0  0  0  0  0  0  0  0  0  0  0  0
   -0.8605  -22.4866   10.3122 H   0  0  0  0  0  0  0  0  0  0  0  0
   -2.2015  -18.9762   10.8551 H   0  0  0  0  0  0  0  0  0  0  0  0
   -0.1219  -17.5222   11.9523 H   0  0  0  0  0  0  0  0  0  0  0  0
    1.7218  -19.4547   12.5839 H   0  0  0  0  0  0  0  0  0  0  0  0
   -7.6098  -23.4201   11.5576 H   0  0  0  0  0  0  0  0  0  0  0  0
   -9.8393  -22.6926   12.0835 H   0  0  0  0  0  0  0  0  0  0  0  0
  1  2  2  0
  2  3  1  0
  3  4  2  0
  4  5  1  0
  5  6  1  0
  6  7  2  0
  7  8  1  0
  8  9  2  0
  9 10  1  0
 10 11  1  0
 11 12  1  0
 12 13  1  0
 13 14  1  0
 14 15  1  0
 15 16  2  0
 16 17  1  0
 17 18  2  0
  4 19  1  0
 19 20  2  0
 20  1  1  0
  9  5  1  0
 18 14  1  0
  1 21  1  0
  2 22  1  0
  3 23  1  0
 10 24  1  0
 10 25  1  0
 11 26  1  0
 12 27  1  0
 12 28  1  0
 13 29  1  0
 13 30  1  0
 15 31  1  0
 16 32  1  0
 17 33  1  0
 19 34  1  0
 20 35  1  0
M  END
>  <Energy>  (383) 
93.900081784280871

>  <compound_id>  (383) 
75947

>  <target_id>  (383) 
1

>  <reference_id>  (383) 
93

>  <inspiration_ids>  (383) 
[93, 112]

>  <energy_score>  (383) 
-1.4887500421891247

>  <distance_score>  (383) 
14.279469597887063

>  <path>  (383) 
/opt/xchem-fragalysis-2/maxwin/BulkDock/SCRATCH/511017/C75947-P93/C75947-P93.minimised.mol

>  <scratch_subdir>  (383) 
/opt/xchem-fragalysis-2/maxwin/BulkDock/SCRATCH/511017/C75947-P93

>  <fragmenstein_runtime>  (383) 
9.265073776245117

>  <fragmenstein_outcome>  (383) 
too moved

>  <fragmenstein_mode>  (383) 
expansion

>  <fragmenstein_error>  (383) 


$$$$
C75947-P112
     RDKit          3D

 35 37  0  0  0  0  0  0  0  0999 V2000
   -4.7574  -16.0204   15.0470 C   0  0  0  0  0  0  0  0  0  0  0  0
   -4.1476  -17.2648   15.0911 C   0  0  0  0  0  0  0  0  0  0  0  0
   -2.9353  -17.4336   15.7807 C   0  0  0  0  0  0  0  0  0  0  0  0
   -2.2667  -16.3310   16.3748 C   0  0  0  0  0  0  0  0  0  0  0  0
   -1.0587  -16.5551   17.1471 N   0  0  0  0  0  0  0  0  0  0  0  0
   -1.0694  -17.7087   17.8718 N   0  0  0  0  0  0  0  0  0  0  0  0
   -0.5216  -17.3949   19.0264 N   0  0  0  0  0  0  0  0  0  0  0  0
    0.1251  -16.1852   18.9539 N   0  0  0  0  0  0  0  0  0  0  0  0
    0.0268  -15.7318   17.7015 C   0  0  0  0  0  0  0  0  0  0  0  0
    1.4558  -15.0319   16.9968 C   0  0  0  0  0  0  0  0  0  0  0  0
    1.3514  -13.6712   16.3238 N   0  0  0  0  0  0  0  0  0  0  0  0
    2.2789  -12.3849   15.1586 C   0  0  0  0  0  0  0  0  0  0  0  0
    3.8689  -10.9067   14.8747 C   0  0  0  0  0  0  0  0  0  0  0  0
    4.6012   -9.3459   13.9002 N   0  0  0  0  0  0  0  0  0  0  0  0
    5.9827   -8.1380   14.1071 C   0  0  0  0  0  0  0  0  0  0  0  0
    5.9973   -6.8205   13.7604 C   0  0  0  0  0  0  0  0  0  0  0  0
    4.6898   -6.7613   13.5126 C   0  0  0  0  0  0  0  0  0  0  0  0
    3.9789   -7.8776   13.8057 N   0  0  0  0  0  0  0  0  0  0  0  0
   -2.8686  -15.0777   16.2894 C   0  0  0  0  0  0  0  0  0  0  0  0
   -4.1195  -14.9350   15.6495 C   0  0  0  0  0  0  0  0  0  0  0  0
   -5.7064  -15.8881   14.5349 H   0  0  0  0  0  0  0  0  0  0  0  0
   -4.6069  -18.0962   14.5754 H   0  0  0  0  0  0  0  0  0  0  0  0
   -2.4994  -18.4321   15.8268 H   0  0  0  0  0  0  0  0  0  0  0  0
    1.9248  -15.8195   16.4041 H   0  0  0  0  0  0  0  0  0  0  0  0
    2.1053  -14.8938   17.8708 H   0  0  0  0  0  0  0  0  0  0  0  0
    0.4748  -13.8106   15.8301 H   0  0  0  0  0  0  0  0  0  0  0  0
    2.4597  -11.9175   16.1847 H   0  0  0  0  0  0  0  0  0  0  0  0
    1.5336  -12.1794   14.3537 H   0  0  0  0  0  0  0  0  0  0  0  0
    3.8740  -10.5659   15.8976 H   0  0  0  0  0  0  0  0  0  0  0  0
    4.7543  -11.4639   14.5534 H   0  0  0  0  0  0  0  0  0  0  0  0
    6.8140   -8.7496   13.9289 H   0  0  0  0  0  0  0  0  0  0  0  0
    6.8257   -6.1435   13.6275 H   0  0  0  0  0  0  0  0  0  0  0  0
    4.2115   -5.8591   13.1578 H   0  0  0  0  0  0  0  0  0  0  0  0
   -2.4151  -14.2115   16.7656 H   0  0  0  0  0  0  0  0  0  0  0  0
   -4.5955  -13.9569   15.6219 H   0  0  0  0  0  0  0  0  0  0  0  0
  1  2  2  0
  2  3  1  0
  3  4  2  0
  4  5  1  0
  5  6  1  0
  6  7  2  0
  7  8  1  0
  8  9  2  0
  9 10  1  0
 10 11  1  0
 11 12  1  0
 12 13  1  0
 13 14  1  0
 14 15  1  0
 15 16  2  0
 16 17  1  0
 17 18  2  0
  4 19  1  0
 19 20  2  0
 20  1  1  0
  9  5  1  0
 18 14  1  0
  1 21  1  0
  2 22  1  0
  3 23  1  0
 10 24  1  0
 10 25  1  0
 11 26  1  0
 12 27  1  0
 12 28  1  0
 13 29  1  0
 13 30  1  0
 15 31  1  0
 16 32  1  0
 17 33  1  0
 19 34  1  0
 20 35  1  0
M  END
>  <Energy>  (384) 
662.94980854511562

>  <compound_id>  (384) 
75947

>  <target_id>  (384) 
1

>  <reference_id>  (384) 
112

>  <inspiration_ids>  (384) 
[93, 112]

>  <energy_score>  (384) 
567.5609767186445

>  <distance_score>  (384) 
13.70437694709945

>  <path>  (384) 
/opt/xchem-fragalysis-2/maxwin/BulkDock/SCRATCH/511017/C75947-P112/C75947-P112.minimised.mol

>  <scratch_subdir>  (384) 
/opt/xchem-fragalysis-2/maxwin/BulkDock/SCRATCH/511017/C75947-P112

>  <fragmenstein_runtime>  (384) 
9.376028776168823

>  <fragmenstein_outcome>  (384) 
too moved

>  <fragmenstein_mode>  (384) 
expansion

>  <fragmenstein_error>  (384) 


$$$$
C75961-P93
     RDKit          3D

 39 40  0  0  0  0  0  0  0  0999 V2000
   -0.5683  -15.3388   10.2442 C   0  0  0  0  0  0  0  0  0  0  0  0
   -2.0771  -15.6139   10.0406 C   0  0  0  0  0  0  0  0  0  0  0  0
   -2.5618  -17.1049    9.9345 C   0  0  0  0  0  0  0  0  0  0  0  0
   -4.0879  -17.4073   10.0376 C   0  0  0  0  0  0  0  0  0  0  0  0
   -4.8926  -17.6732    8.9129 C   0  0  0  0  0  0  0  0  0  0  0  0
   -6.2626  -18.0495    9.0155 C   0  0  0  0  0  0  0  0  0  0  0  0
   -6.8895  -18.2161   10.2572 C   0  0  0  0  0  0  0  0  0  0  0  0
   -8.3892  -18.5864   10.4055 C   0  0  0  0  0  0  0  0  0  0  0  0
   -8.9651  -19.7217    9.4720 C   0  0  0  0  0  0  0  0  0  0  0  0
   -9.1528  -21.0792   10.0001 N   0  0  0  0  0  0  0  0  0  0  0  0
   -9.6348  -22.1630    9.2809 C   0  0  0  0  0  0  0  0  0  0  0  0
   -9.8076  -23.1880   10.1870 C   0  0  0  0  0  0  0  0  0  0  0  0
   -9.4659  -22.6244   11.4280 C   0  0  0  0  0  0  0  0  0  0  0  0
   -9.1397  -21.3344   11.3199 N   0  0  0  0  0  0  0  0  0  0  0  0
   -9.1819  -17.3518   10.1181 N   0  0  0  0  0  0  0  0  0  0  0  0
   -9.1486  -16.3846   11.2097 C   0  0  0  0  0  0  0  0  0  0  0  0
   -6.0904  -17.8988   11.3783 C   0  0  0  0  0  0  0  0  0  0  0  0
   -4.7266  -17.5105   11.2765 C   0  0  0  0  0  0  0  0  0  0  0  0
   -0.0050  -15.6904    9.3744 H   0  0  0  0  0  0  0  0  0  0  0  0
   -0.1933  -15.8655   11.1259 H   0  0  0  0  0  0  0  0  0  0  0  0
   -0.3838  -14.2685   10.3672 H   0  0  0  0  0  0  0  0  0  0  0  0
   -2.6367  -15.2082   10.8769 H   0  0  0  0  0  0  0  0  0  0  0  0
   -2.4109  -15.0919    9.1359 H   0  0  0  0  0  0  0  0  0  0  0  0
   -2.1942  -17.5215    8.9881 H   0  0  0  0  0  0  0  0  0  0  0  0
   -2.0690  -17.6863   10.7250 H   0  0  0  0  0  0  0  0  0  0  0  0
   -4.4511  -17.5997    7.9197 H   0  0  0  0  0  0  0  0  0  0  0  0
   -6.8115  -18.2096    8.0907 H   0  0  0  0  0  0  0  0  0  0  0  0
   -8.5761  -18.8773   11.4413 H   0  0  0  0  0  0  0  0  0  0  0  0
   -8.3957  -19.8168    8.5425 H   0  0  0  0  0  0  0  0  0  0  0  0
   -9.9644  -19.4230    9.1308 H   0  0  0  0  0  0  0  0  0  0  0  0
   -9.7825  -22.1037    8.2130 H   0  0  0  0  0  0  0  0  0  0  0  0
  -10.1357  -24.1965    9.9844 H   0  0  0  0  0  0  0  0  0  0  0  0
   -9.4620  -23.0814   12.4093 H   0  0  0  0  0  0  0  0  0  0  0  0
   -8.8219  -16.9061    9.2749 H   0  0  0  0  0  0  0  0  0  0  0  0
   -9.4555  -16.8352   12.1589 H   0  0  0  0  0  0  0  0  0  0  0  0
   -9.8548  -15.5774   10.9907 H   0  0  0  0  0  0  0  0  0  0  0  0
   -8.1617  -15.9292   11.3306 H   0  0  0  0  0  0  0  0  0  0  0  0
   -6.5195  -17.9429   12.3749 H   0  0  0  0  0  0  0  0  0  0  0  0
   -4.1662  -17.3143   12.1902 H   0  0  0  0  0  0  0  0  0  0  0  0
  1  2  1  0
  2  3  1  0
  3  4  1  0
  4  5  2  0
  5  6  1  0
  6  7  2  0
  7  8  1  0
  8  9  1  0
  9 10  1  0
 10 11  1  0
 11 12  2  0
 12 13  1  0
 13 14  2  0
  8 15  1  0
 15 16  1  0
  7 17  1  0
 17 18  2  0
 18  4  1  0
 14 10  1  0
  1 19  1  0
  1 20  1  0
  1 21  1  0
  2 22  1  0
  2 23  1  0
  3 24  1  0
  3 25  1  0
  5 26  1  0
  6 27  1  0
  8 28  1  0
  9 29  1  0
  9 30  1  0
 11 31  1  0
 12 32  1  0
 13 33  1  0
 15 34  1  0
 16 35  1  0
 16 36  1  0
 16 37  1  0
 17 38  1  0
 18 39  1  0
M  END
>  <Energy>  (385) 
60.08872045850444

>  <compound_id>  (385) 
75961

>  <target_id>  (385) 
1

>  <reference_id>  (385) 
93

>  <inspiration_ids>  (385) 
[93, 112]

>  <energy_score>  (385) 
-8.334694933423123

>  <distance_score>  (385) 
12.78237157087254

>  <path>  (385) 
/opt/xchem-fragalysis-2/maxwin/BulkDock/SCRATCH/511017/C75961-P93/C75961-P93.minimised.mol

>  <scratch_subdir>  (385) 
/opt/xchem-fragalysis-2/maxwin/BulkDock/SCRATCH/511017/C75961-P93

>  <fragmenstein_runtime>  (385) 
13.253136396408081

>  <fragmenstein_outcome>  (385) 
too moved

>  <fragmenstein_mode>  (385) 
expansion

>  <fragmenstein_error>  (385) 


$$$$
C75961-P112
     RDKit          3D

 39 40  0  0  0  0  0  0  0  0999 V2000
   -0.0254  -11.7397   11.9622 C   0  0  0  0  0  0  0  0  0  0  0  0
   -0.2002  -13.0535   12.6773 C   0  0  0  0  0  0  0  0  0  0  0  0
   -1.4845  -13.7735   13.8518 C   0  0  0  0  0  0  0  0  0  0  0  0
   -3.6479  -14.1487   13.2742 C   0  0  0  0  0  0  0  0  0  0  0  0
   -4.7189  -13.7328   12.2437 C   0  0  0  0  0  0  0  0  0  0  0  0
   -5.9728  -14.4598   11.6986 C   0  0  0  0  0  0  0  0  0  0  0  0
   -6.3163  -15.8217   11.8708 C   0  0  0  0  0  0  0  0  0  0  0  0
   -7.5904  -16.5748   11.4175 C   0  0  0  0  0  0  0  0  0  0  0  0
   -8.4142  -17.0833   12.6565 C   0  0  0  0  0  0  0  0  0  0  0  0
   -8.3331  -18.4919   13.0350 N   0  0  0  0  0  0  0  0  0  0  0  0
   -7.9672  -19.5811   12.2924 C   0  0  0  0  0  0  0  0  0  0  0  0
   -8.1044  -20.6792   13.1119 C   0  0  0  0  0  0  0  0  0  0  0  0
   -8.6006  -20.1681   14.3178 C   0  0  0  0  0  0  0  0  0  0  0  0
   -8.7587  -18.8439   14.2737 N   0  0  0  0  0  0  0  0  0  0  0  0
   -8.3767  -15.7159   10.4984 N   0  0  0  0  0  0  0  0  0  0  0  0
   -9.4161  -16.4498    9.7811 C   0  0  0  0  0  0  0  0  0  0  0  0
   -5.3541  -16.5222   12.5319 C   0  0  0  0  0  0  0  0  0  0  0  0
   -4.2489  -15.8147   13.1014 C   0  0  0  0  0  0  0  0  0  0  0  0
   -0.0875  -11.8792   10.8798 H   0  0  0  0  0  0  0  0  0  0  0  0
   -0.7661  -11.0494   12.3190 H   0  0  0  0  0  0  0  0  0  0  0  0
    0.9746  -11.3264   12.0468 H   0  0  0  0  0  0  0  0  0  0  0  0
    0.7036  -13.1377   13.2283 H   0  0  0  0  0  0  0  0  0  0  0  0
   -0.1011  -13.7971   11.8588 H   0  0  0  0  0  0  0  0  0  0  0  0
   -1.2153  -14.2204   14.8369 H   0  0  0  0  0  0  0  0  0  0  0  0
   -0.8553  -14.5148   13.2653 H   0  0  0  0  0  0  0  0  0  0  0  0
   -4.8391  -12.6819   11.9488 H   0  0  0  0  0  0  0  0  0  0  0  0
   -6.6562  -13.8146   11.1395 H   0  0  0  0  0  0  0  0  0  0  0  0
   -7.2259  -17.4175   10.8188 H   0  0  0  0  0  0  0  0  0  0  0  0
   -9.4785  -16.8784   12.5214 H   0  0  0  0  0  0  0  0  0  0  0  0
   -8.1245  -16.5137   13.5506 H   0  0  0  0  0  0  0  0  0  0  0  0
   -7.6398  -19.5006   11.2673 H   0  0  0  0  0  0  0  0  0  0  0  0
   -7.8746  -21.7068   12.8813 H   0  0  0  0  0  0  0  0  0  0  0  0
   -8.8456  -20.7017   15.2276 H   0  0  0  0  0  0  0  0  0  0  0  0
   -7.7334  -15.3438    9.7976 H   0  0  0  0  0  0  0  0  0  0  0  0
  -10.2217  -16.7687   10.4446 H   0  0  0  0  0  0  0  0  0  0  0  0
   -9.0100  -17.3213    9.2577 H   0  0  0  0  0  0  0  0  0  0  0  0
   -9.8661  -15.7913    9.0311 H   0  0  0  0  0  0  0  0  0  0  0  0
   -5.4298  -17.5929   12.7055 H   0  0  0  0  0  0  0  0  0  0  0  0
   -3.7221  -16.5989   13.7045 H   0  0  0  0  0  0  0  0  0  0  0  0
  1  2  1  0
  2  3  1  0
  3  4  1  0
  4  5  2  0
  5  6  1  0
  6  7  2  0
  7  8  1  0
  8  9  1  0
  9 10  1  0
 10 11  1  0
 11 12  2  0
 12 13  1  0
 13 14  2  0
  8 15  1  0
 15 16  1  0
  7 17  1  0
 17 18  2  0
 18  4  1  0
 14 10  1  0
  1 19  1  0
  1 20  1  0
  1 21  1  0
  2 22  1  0
  2 23  1  0
  3 24  1  0
  3 25  1  0
  5 26  1  0
  6 27  1  0
  8 28  1  0
  9 29  1  0
  9 30  1  0
 11 31  1  0
 12 32  1  0
 13 33  1  0
 15 34  1  0
 16 35  1  0
 16 36  1  0
 16 37  1  0
 17 38  1  0
 18 39  1  0
M  END
>  <Energy>  (386) 
468.95361631375994

>  <compound_id>  (386) 
75961

>  <target_id>  (386) 
1

>  <reference_id>  (386) 
112

>  <inspiration_ids>  (386) 
[93, 112]

>  <energy_score>  (386) 
400.5302009218267

>  <distance_score>  (386) 
12.539697362300872

>  <path>  (386) 
/opt/xchem-fragalysis-2/maxwin/BulkDock/SCRATCH/511017/C75961-P112/C75961-P112.minimised.mol

>  <scratch_subdir>  (386) 
/opt/xchem-fragalysis-2/maxwin/BulkDock/SCRATCH/511017/C75961-P112

>  <fragmenstein_runtime>  (386) 
10.359689712524414

>  <fragmenstein_outcome>  (386) 
too moved

>  <fragmenstein_mode>  (386) 
expansion

>  <fragmenstein_error>  (386) 


$$$$
C75968-P93
     RDKit          3D

 37 38  0  0  0  0  0  0  0  0999 V2000
   -3.6452  -15.7863   15.7886 C   0  0  0  0  0  0  0  0  0  0  0  0
   -4.9227  -16.1805   15.0277 C   0  0  0  0  0  0  0  0  0  0  0  0
   -4.8223  -16.1097   13.5961 O   0  0  0  0  0  0  0  0  0  0  0  0
   -5.8059  -16.7128   12.8308 C   0  0  0  0  0  0  0  0  0  0  0  0
   -7.1910  -16.6140   13.0019 C   0  0  0  0  0  0  0  0  0  0  0  0
   -8.0886  -17.2641   12.1008 C   0  0  0  0  0  0  0  0  0  0  0  0
   -7.6142  -18.0639   11.0414 C   0  0  0  0  0  0  0  0  0  0  0  0
   -8.5227  -19.0217   10.2157 C   0  0  0  0  0  0  0  0  0  0  0  0
   -8.8730  -20.2509   11.1281 C   0  0  0  0  0  0  0  0  0  0  0  0
   -9.2259  -21.5838   10.6579 N   0  0  0  0  0  0  0  0  0  0  0  0
   -9.4040  -22.6763   11.4814 C   0  0  0  0  0  0  0  0  0  0  0  0
   -9.8902  -23.6921   10.6986 C   0  0  0  0  0  0  0  0  0  0  0  0
   -9.9888  -23.1246    9.4177 C   0  0  0  0  0  0  0  0  0  0  0  0
   -9.5878  -21.8466    9.3756 N   0  0  0  0  0  0  0  0  0  0  0  0
   -9.6642  -18.3067    9.6114 N   0  0  0  0  0  0  0  0  0  0  0  0
   -9.2537  -17.3086    8.6282 C   0  0  0  0  0  0  0  0  0  0  0  0
   -6.2247  -18.0473   10.8218 C   0  0  0  0  0  0  0  0  0  0  0  0
   -5.3416  -17.3871   11.6999 C   0  0  0  0  0  0  0  0  0  0  0  0
   -3.8199  -15.8755   16.8658 H   0  0  0  0  0  0  0  0  0  0  0  0
   -3.3405  -14.7738   15.5903 H   0  0  0  0  0  0  0  0  0  0  0  0
   -2.8394  -16.4747   15.5295 H   0  0  0  0  0  0  0  0  0  0  0  0
   -5.7650  -15.5732   15.3681 H   0  0  0  0  0  0  0  0  0  0  0  0
   -5.1554  -17.2187   15.2998 H   0  0  0  0  0  0  0  0  0  0  0  0
   -7.6009  -16.0361   13.8244 H   0  0  0  0  0  0  0  0  0  0  0  0
   -9.1590  -17.1935   12.2851 H   0  0  0  0  0  0  0  0  0  0  0  0
   -7.9555  -19.3715    9.3595 H   0  0  0  0  0  0  0  0  0  0  0  0
   -7.9965  -20.4387   11.7426 H   0  0  0  0  0  0  0  0  0  0  0  0
   -9.6595  -19.9553   11.8200 H   0  0  0  0  0  0  0  0  0  0  0  0
   -9.1701  -22.6254   12.5355 H   0  0  0  0  0  0  0  0  0  0  0  0
  -10.1419  -24.6943   11.0122 H   0  0  0  0  0  0  0  0  0  0  0  0
  -10.3376  -23.5898    8.5052 H   0  0  0  0  0  0  0  0  0  0  0  0
  -10.2311  -19.0046    9.1215 H   0  0  0  0  0  0  0  0  0  0  0  0
   -8.6917  -16.4887    9.0848 H   0  0  0  0  0  0  0  0  0  0  0  0
  -10.1467  -16.8690    8.1724 H   0  0  0  0  0  0  0  0  0  0  0  0
   -8.6562  -17.7530    7.8255 H   0  0  0  0  0  0  0  0  0  0  0  0
   -5.7921  -18.5843    9.9806 H   0  0  0  0  0  0  0  0  0  0  0  0
   -4.2702  -17.4260   11.5080 H   0  0  0  0  0  0  0  0  0  0  0  0
  1  2  1  0
  2  3  1  0
  3  4  1  0
  4  5  2  0
  5  6  1  0
  6  7  2  0
  7  8  1  0
  8  9  1  0
  9 10  1  0
 10 11  1  0
 11 12  2  0
 12 13  1  0
 13 14  2  0
  8 15  1  0
 15 16  1  0
  7 17  1  0
 17 18  2  0
 18  4  1  0
 14 10  1  0
  1 19  1  0
  1 20  1  0
  1 21  1  0
  2 22  1  0
  2 23  1  0
  5 24  1  0
  6 25  1  0
  8 26  1  0
  9 27  1  0
  9 28  1  0
 11 29  1  0
 12 30  1  0
 13 31  1  0
 15 32  1  0
 16 33  1  0
 16 34  1  0
 16 35  1  0
 17 36  1  0
 18 37  1  0
M  END
>  <Energy>  (387) 
58.790482662152286

>  <compound_id>  (387) 
75968

>  <target_id>  (387) 
1

>  <reference_id>  (387) 
93

>  <inspiration_ids>  (387) 
[93, 112]

>  <energy_score>  (387) 
-23.86106170447556

>  <distance_score>  (387) 
13.337600479329208

>  <path>  (387) 
/opt/xchem-fragalysis-2/maxwin/BulkDock/SCRATCH/511017/C75968-P93/C75968-P93.minimised.mol

>  <scratch_subdir>  (387) 
/opt/xchem-fragalysis-2/maxwin/BulkDock/SCRATCH/511017/C75968-P93

>  <fragmenstein_runtime>  (387) 
12.90118145942688

>  <fragmenstein_outcome>  (387) 
too moved

>  <fragmenstein_mode>  (387) 
expansion

>  <fragmenstein_error>  (387) 


$$$$
C75968-P112
     RDKit          3D

 37 38  0  0  0  0  0  0  0  0999 V2000
    0.0744  -12.3933   12.2646 C   0  0  0  0  0  0  0  0  0  0  0  0
   -0.5268  -13.7750   12.4302 C   0  0  0  0  0  0  0  0  0  0  0  0
   -1.6655  -13.9072   13.8408 O   0  0  0  0  0  0  0  0  0  0  0  0
   -3.5510  -14.4590   14.1431 C   0  0  0  0  0  0  0  0  0  0  0  0
   -4.4036  -14.9665   12.8528 C   0  0  0  0  0  0  0  0  0  0  0  0
   -5.3401  -16.0193   12.9457 C   0  0  0  0  0  0  0  0  0  0  0  0
   -5.5238  -16.7030   14.1667 C   0  0  0  0  0  0  0  0  0  0  0  0
   -6.1742  -18.1198   14.0934 C   0  0  0  0  0  0  0  0  0  0  0  0
   -7.6427  -18.1852   14.5709 C   0  0  0  0  0  0  0  0  0  0  0  0
   -8.2410  -19.4894   14.3422 N   0  0  0  0  0  0  0  0  0  0  0  0
   -8.4834  -20.4380   15.2870 C   0  0  0  0  0  0  0  0  0  0  0  0
   -8.8884  -21.5585   14.6064 C   0  0  0  0  0  0  0  0  0  0  0  0
   -8.9563  -21.1548   13.2736 C   0  0  0  0  0  0  0  0  0  0  0  0
   -8.5821  -19.8849   13.0995 N   0  0  0  0  0  0  0  0  0  0  0  0
   -5.2906  -19.1043   14.7794 N   0  0  0  0  0  0  0  0  0  0  0  0
   -4.0569  -19.3409   14.0130 C   0  0  0  0  0  0  0  0  0  0  0  0
   -4.8943  -16.2008   15.3699 C   0  0  0  0  0  0  0  0  0  0  0  0
   -3.9194  -15.1440   15.4095 C   0  0  0  0  0  0  0  0  0  0  0  0
    0.6914  -12.2340   13.1275 H   0  0  0  0  0  0  0  0  0  0  0  0
   -0.6222  -11.5652   12.2413 H   0  0  0  0  0  0  0  0  0  0  0  0
    0.6333  -12.3521   11.3260 H   0  0  0  0  0  0  0  0  0  0  0  0
    0.2302  -14.5117   12.5477 H   0  0  0  0  0  0  0  0  0  0  0  0
   -1.0475  -14.1524   11.5326 H   0  0  0  0  0  0  0  0  0  0  0  0
   -4.1764  -14.5962   11.8629 H   0  0  0  0  0  0  0  0  0  0  0  0
   -5.7961  -16.3889   12.0291 H   0  0  0  0  0  0  0  0  0  0  0  0
   -6.1953  -18.4110   13.0330 H   0  0  0  0  0  0  0  0  0  0  0  0
   -7.7175  -17.9596   15.6414 H   0  0  0  0  0  0  0  0  0  0  0  0
   -8.2599  -17.4523   14.0374 H   0  0  0  0  0  0  0  0  0  0  0  0
   -8.2944  -20.2657   16.3360 H   0  0  0  0  0  0  0  0  0  0  0  0
   -9.1228  -22.5223   15.0267 H   0  0  0  0  0  0  0  0  0  0  0  0
   -9.2761  -21.7335   12.4240 H   0  0  0  0  0  0  0  0  0  0  0  0
   -5.0311  -18.7573   15.7002 H   0  0  0  0  0  0  0  0  0  0  0  0
   -3.4484  -18.4382   13.9061 H   0  0  0  0  0  0  0  0  0  0  0  0
   -3.4453  -20.0814   14.5381 H   0  0  0  0  0  0  0  0  0  0  0  0
   -4.2823  -19.7438   13.0206 H   0  0  0  0  0  0  0  0  0  0  0  0
   -5.1029  -16.7010   16.3164 H   0  0  0  0  0  0  0  0  0  0  0  0
   -3.5455  -14.8230   16.3769 H   0  0  0  0  0  0  0  0  0  0  0  0
  1  2  1  0
  2  3  1  0
  3  4  1  0
  4  5  2  0
  5  6  1  0
  6  7  2  0
  7  8  1  0
  8  9  1  0
  9 10  1  0
 10 11  1  0
 11 12  2  0
 12 13  1  0
 13 14  2  0
  8 15  1  0
 15 16  1  0
  7 17  1  0
 17 18  2  0
 18  4  1  0
 14 10  1  0
  1 19  1  0
  1 20  1  0
  1 21  1  0
  2 22  1  0
  2 23  1  0
  5 24  1  0
  6 25  1  0
  8 26  1  0
  9 27  1  0
  9 28  1  0
 11 29  1  0
 12 30  1  0
 13 31  1  0
 15 32  1  0
 16 33  1  0
 16 34  1  0
 16 35  1  0
 17 36  1  0
 18 37  1  0
M  END
>  <Energy>  (388) 
267.30385628282141

>  <compound_id>  (388) 
75968

>  <target_id>  (388) 
1

>  <reference_id>  (388) 
112

>  <inspiration_ids>  (388) 
[93, 112]

>  <energy_score>  (388) 
184.65231191619398

>  <distance_score>  (388) 
12.750813974784874

>  <path>  (388) 
/opt/xchem-fragalysis-2/maxwin/BulkDock/SCRATCH/511017/C75968-P112/C75968-P112.minimised.mol

>  <scratch_subdir>  (388) 
/opt/xchem-fragalysis-2/maxwin/BulkDock/SCRATCH/511017/C75968-P112

>  <fragmenstein_runtime>  (388) 
7.982896089553833

>  <fragmenstein_outcome>  (388) 
too moved

>  <fragmenstein_mode>  (388) 
expansion

>  <fragmenstein_error>  (388) 


$$$$
C75969-P93
     RDKit          3D

 43 46  0  0  0  0  0  0  0  0999 V2000
   10.1732   -3.8824   14.9147 C   0  0  0  0  0  0  0  0  0  0  0  0
    8.4561   -3.5900   15.1322 C   0  0  0  0  0  0  0  0  0  0  0  0
    7.6084   -5.1748   15.9516 N   0  0  0  0  0  0  0  0  0  0  0  0
    6.1889   -6.0307   16.5629 C   0  0  0  0  0  0  0  0  0  0  0  0
    5.2503   -7.1990   15.8446 C   0  0  0  0  0  0  0  0  0  0  0  0
    3.9224   -7.0500   15.7133 N   0  0  0  0  0  0  0  0  0  0  0  0
    3.5734   -7.7353   14.5592 C   0  0  0  0  0  0  0  0  0  0  0  0
    2.6030   -7.4219   13.5749 C   0  0  0  0  0  0  0  0  0  0  0  0
    2.6510   -8.0886   12.3259 C   0  0  0  0  0  0  0  0  0  0  0  0
    3.5300   -9.1601   12.1396 C   0  0  0  0  0  0  0  0  0  0  0  0
    4.4813   -9.4993   13.1250 C   0  0  0  0  0  0  0  0  0  0  0  0
    4.5430   -8.6813   14.2675 C   0  0  0  0  0  0  0  0  0  0  0  0
    5.5792   -8.3794   15.1657 N   0  0  0  0  0  0  0  0  0  0  0  0
    8.7950   -1.8810   15.4836 C   0  0  0  0  0  0  0  0  0  0  0  0
    7.8233   -0.9410   15.7306 C   0  0  0  0  0  0  0  0  0  0  0  0
    8.1934    0.3250   16.2612 C   0  0  0  0  0  0  0  0  0  0  0  0
    9.4928    0.8224   16.2164 C   0  0  0  0  0  0  0  0  0  0  0  0
   10.4984   -0.0056   15.7747 C   0  0  0  0  0  0  0  0  0  0  0  0
   11.8535    0.4446   15.7319 N   0  0  0  0  0  0  0  0  0  0  0  0
   12.9986   -0.2729   15.4407 C   0  0  0  0  0  0  0  0  0  0  0  0
   14.0677    0.5704   15.6297 C   0  0  0  0  0  0  0  0  0  0  0  0
   13.4889    1.7871   16.0137 C   0  0  0  0  0  0  0  0  0  0  0  0
   12.1587    1.7245   16.0737 N   0  0  0  0  0  0  0  0  0  0  0  0
   10.1488   -1.3278   15.4780 C   0  0  0  0  0  0  0  0  0  0  0  0
   10.7651   -3.8059   15.8376 H   0  0  0  0  0  0  0  0  0  0  0  0
   10.4345   -4.8353   14.5046 H   0  0  0  0  0  0  0  0  0  0  0  0
   10.6059   -3.2505   14.1313 H   0  0  0  0  0  0  0  0  0  0  0  0
    7.9180   -3.2680   14.2287 H   0  0  0  0  0  0  0  0  0  0  0  0
    8.1031   -5.8874   15.3876 H   0  0  0  0  0  0  0  0  0  0  0  0
    6.5155   -6.4700   17.5127 H   0  0  0  0  0  0  0  0  0  0  0  0
    5.3865   -5.3684   16.9161 H   0  0  0  0  0  0  0  0  0  0  0  0
    1.9085   -6.6064   13.7449 H   0  0  0  0  0  0  0  0  0  0  0  0
    1.9572   -7.8062   11.5393 H   0  0  0  0  0  0  0  0  0  0  0  0
    3.5250   -9.7001   11.1948 H   0  0  0  0  0  0  0  0  0  0  0  0
    5.2493  -10.2374   12.9131 H   0  0  0  0  0  0  0  0  0  0  0  0
    6.5060   -8.7776   15.0969 H   0  0  0  0  0  0  0  0  0  0  0  0
    6.7734   -1.1881   15.6275 H   0  0  0  0  0  0  0  0  0  0  0  0
    7.4331    0.9751   16.6895 H   0  0  0  0  0  0  0  0  0  0  0  0
    9.6929    1.8421   16.5381 H   0  0  0  0  0  0  0  0  0  0  0  0
   12.9753   -1.3051   15.1280 H   0  0  0  0  0  0  0  0  0  0  0  0
   15.1151    0.3394   15.4965 H   0  0  0  0  0  0  0  0  0  0  0  0
   13.9804    2.7217   16.2540 H   0  0  0  0  0  0  0  0  0  0  0  0
   11.0186   -1.9163   15.2481 H   0  0  0  0  0  0  0  0  0  0  0  0
  1  2  1  0
  2  3  1  0
  3  4  1  0
  4  5  1  0
  5  6  2  0
  6  7  1  0
  7  8  2  0
  8  9  1  0
  9 10  2  0
 10 11  1  0
 11 12  2  0
 12 13  1  0
  2 14  1  0
 14 15  2  0
 15 16  1  0
 16 17  2  0
 17 18  1  0
 18 19  1  0
 19 20  1  0
 20 21  2  0
 21 22  1  0
 22 23  2  0
 18 24  2  0
 13  5  1  0
 24 14  1  0
 12  7  1  0
 23 19  1  0
  1 25  1  0
  1 26  1  0
  1 27  1  0
  2 28  1  0
  3 29  1  0
  4 30  1  0
  4 31  1  0
  8 32  1  0
  9 33  1  0
 10 34  1  0
 11 35  1  0
 13 36  1  0
 15 37  1  0
 16 38  1  0
 17 39  1  0
 20 40  1  0
 21 41  1  0
 22 42  1  0
 24 43  1  0
M  END
>  <Energy>  (389) 
334.92892411517954

>  <compound_id>  (389) 
75969

>  <target_id>  (389) 
1

>  <reference_id>  (389) 
93

>  <inspiration_ids>  (389) 
[93, 112]

>  <energy_score>  (389) 
249.01481518307628

>  <distance_score>  (389) 
15.391898588972301

>  <path>  (389) 
/opt/xchem-fragalysis-2/maxwin/BulkDock/SCRATCH/511017/C75969-P93/C75969-P93.minimised.mol

>  <scratch_subdir>  (389) 
/opt/xchem-fragalysis-2/maxwin/BulkDock/SCRATCH/511017/C75969-P93

>  <fragmenstein_runtime>  (389) 
11.103425979614258

>  <fragmenstein_outcome>  (389) 
too moved

>  <fragmenstein_mode>  (389) 
expansion

>  <fragmenstein_error>  (389) 


$$$$
C75969-P112
     RDKit          3D

 43 46  0  0  0  0  0  0  0  0999 V2000
    8.3772   -9.7883    8.1119 C   0  0  0  0  0  0  0  0  0  0  0  0
    8.5206   -8.8292    9.2987 C   0  0  0  0  0  0  0  0  0  0  0  0
    7.1831   -8.3749    9.7652 N   0  0  0  0  0  0  0  0  0  0  0  0
    6.4719   -9.3273   10.6627 C   0  0  0  0  0  0  0  0  0  0  0  0
    5.7094  -10.5519   10.0928 C   0  0  0  0  0  0  0  0  0  0  0  0
    5.6772  -11.7713   10.6338 N   0  0  0  0  0  0  0  0  0  0  0  0
    4.7563  -12.5490    9.9172 C   0  0  0  0  0  0  0  0  0  0  0  0
    4.3584  -13.9052   10.0640 C   0  0  0  0  0  0  0  0  0  0  0  0
    3.4855  -14.4909    9.1352 C   0  0  0  0  0  0  0  0  0  0  0  0
    2.9968  -13.7277    8.0764 C   0  0  0  0  0  0  0  0  0  0  0  0
    3.3090  -12.3566    7.9590 C   0  0  0  0  0  0  0  0  0  0  0  0
    4.2082  -11.7956    8.8906 C   0  0  0  0  0  0  0  0  0  0  0  0
    4.8153  -10.5410    9.0250 N   0  0  0  0  0  0  0  0  0  0  0  0
    9.4389   -7.6746    8.8806 C   0  0  0  0  0  0  0  0  0  0  0  0
    8.9397   -6.5271    8.2410 C   0  0  0  0  0  0  0  0  0  0  0  0
    9.7889   -5.4718    7.8960 C   0  0  0  0  0  0  0  0  0  0  0  0
   11.1553   -5.5442    8.1758 C   0  0  0  0  0  0  0  0  0  0  0  0
   11.6871   -6.6862    8.7854 C   0  0  0  0  0  0  0  0  0  0  0  0
   13.0843   -6.7919    9.0181 N   0  0  0  0  0  0  0  0  0  0  0  0
   14.0353   -5.7957    8.9123 C   0  0  0  0  0  0  0  0  0  0  0  0
   15.2642   -6.3993    9.0082 C   0  0  0  0  0  0  0  0  0  0  0  0
   14.9710   -7.7554    9.2190 C   0  0  0  0  0  0  0  0  0  0  0  0
   13.6610   -8.0002    9.2612 N   0  0  0  0  0  0  0  0  0  0  0  0
   10.8326   -7.7563    9.1124 C   0  0  0  0  0  0  0  0  0  0  0  0
    7.8202   -9.3288    7.2869 H   0  0  0  0  0  0  0  0  0  0  0  0
    7.8628  -10.7102    8.3970 H   0  0  0  0  0  0  0  0  0  0  0  0
    9.3588  -10.0805    7.7205 H   0  0  0  0  0  0  0  0  0  0  0  0
    9.0220   -9.3592   10.1137 H   0  0  0  0  0  0  0  0  0  0  0  0
    7.3598   -7.5379   10.3261 H   0  0  0  0  0  0  0  0  0  0  0  0
    7.1488   -9.6955   11.4383 H   0  0  0  0  0  0  0  0  0  0  0  0
    5.7073   -8.7408   11.1895 H   0  0  0  0  0  0  0  0  0  0  0  0
    4.7783  -14.4976   10.8708 H   0  0  0  0  0  0  0  0  0  0  0  0
    3.2174  -15.5397    9.2324 H   0  0  0  0  0  0  0  0  0  0  0  0
    2.3444  -14.1876    7.3361 H   0  0  0  0  0  0  0  0  0  0  0  0
    2.9101  -11.7700    7.1375 H   0  0  0  0  0  0  0  0  0  0  0  0
    4.6568   -9.7446    8.4266 H   0  0  0  0  0  0  0  0  0  0  0  0
    7.8787   -6.4485    8.0147 H   0  0  0  0  0  0  0  0  0  0  0  0
    9.3824   -4.5956    7.3983 H   0  0  0  0  0  0  0  0  0  0  0  0
   11.7824   -4.7177    7.8602 H   0  0  0  0  0  0  0  0  0  0  0  0
   13.7668   -4.7609    8.7727 H   0  0  0  0  0  0  0  0  0  0  0  0
   16.2319   -5.9224    8.9593 H   0  0  0  0  0  0  0  0  0  0  0  0
   15.6595   -8.5771    9.3631 H   0  0  0  0  0  0  0  0  0  0  0  0
   11.2458   -8.6526    9.5716 H   0  0  0  0  0  0  0  0  0  0  0  0
  1  2  1  0
  2  3  1  0
  3  4  1  0
  4  5  1  0
  5  6  2  0
  6  7  1  0
  7  8  2  0
  8  9  1  0
  9 10  2  0
 10 11  1  0
 11 12  2  0
 12 13  1  0
  2 14  1  0
 14 15  2  0
 15 16  1  0
 16 17  2  0
 17 18  1  0
 18 19  1  0
 19 20  1  0
 20 21  2  0
 21 22  1  0
 22 23  2  0
 18 24  2  0
 13  5  1  0
 24 14  1  0
 12  7  1  0
 23 19  1  0
  1 25  1  0
  1 26  1  0
  1 27  1  0
  2 28  1  0
  3 29  1  0
  4 30  1  0
  4 31  1  0
  8 32  1  0
  9 33  1  0
 10 34  1  0
 11 35  1  0
 13 36  1  0
 15 37  1  0
 16 38  1  0
 17 39  1  0
 20 40  1  0
 21 41  1  0
 22 42  1  0
 24 43  1  0
M  END
>  <Energy>  (390) 
60.904101965901333

>  <compound_id>  (390) 
75969

>  <target_id>  (390) 
1

>  <reference_id>  (390) 
112

>  <inspiration_ids>  (390) 
[93, 112]

>  <energy_score>  (390) 
-25.010006966206674

>  <distance_score>  (390) 
15.664795378675333

>  <path>  (390) 
/opt/xchem-fragalysis-2/maxwin/BulkDock/SCRATCH/511017/C75969-P112/C75969-P112.minimised.mol

>  <scratch_subdir>  (390) 
/opt/xchem-fragalysis-2/maxwin/BulkDock/SCRATCH/511017/C75969-P112

>  <fragmenstein_runtime>  (390) 
15.070841312408447

>  <fragmenstein_outcome>  (390) 
too moved

>  <fragmenstein_mode>  (390) 
expansion

>  <fragmenstein_error>  (390) 


$$$$
C75977-P93
     RDKit          3D

 46 49  0  0  0  0  0  0  0  0999 V2000
    7.3435  -10.9151   15.6589 C   0  0  0  0  0  0  0  0  0  0  0  0
    8.2228  -12.0805   16.0958 C   0  0  0  0  0  0  0  0  0  0  0  0
    7.6512  -12.9116   17.1869 N   0  0  0  0  0  0  0  0  0  0  0  0
    6.2306  -13.2534   16.9573 C   0  0  0  0  0  0  0  0  0  0  0  0
    5.6443  -14.5886   17.5490 C   0  0  0  0  0  0  0  0  0  0  0  0
    5.5446  -15.7473   16.8896 N   0  0  0  0  0  0  0  0  0  0  0  0
    4.5293  -16.5804   17.4183 C   0  0  0  0  0  0  0  0  0  0  0  0
    3.9320  -16.1064   18.5637 C   0  0  0  0  0  0  0  0  0  0  0  0
    4.6531  -14.5929   19.0025 S   0  0  0  0  0  0  0  0  0  0  0  0
    2.8536  -16.8139   19.3400 C   0  0  0  0  0  0  0  0  0  0  0  0
    2.6015  -18.2560   18.8290 C   0  0  0  0  0  0  0  0  0  0  0  0
    2.8283  -18.4669   17.3258 C   0  0  0  0  0  0  0  0  0  0  0  0
    4.1798  -17.9182   16.8236 C   0  0  0  0  0  0  0  0  0  0  0  0
    9.7124  -11.7600   16.2527 C   0  0  0  0  0  0  0  0  0  0  0  0
   10.4295  -11.7140   15.0294 C   0  0  0  0  0  0  0  0  0  0  0  0
   11.8187  -11.7596   14.9856 C   0  0  0  0  0  0  0  0  0  0  0  0
   12.5296  -11.8812   16.1627 C   0  0  0  0  0  0  0  0  0  0  0  0
   11.8551  -11.8674   17.3841 C   0  0  0  0  0  0  0  0  0  0  0  0
   10.4570  -11.6979   17.4526 C   0  0  0  0  0  0  0  0  0  0  0  0
    9.8848  -11.3589   18.7249 N   0  0  0  0  0  0  0  0  0  0  0  0
   10.5538  -11.1955   19.9310 C   0  0  0  0  0  0  0  0  0  0  0  0
    9.7000  -10.5640   20.8014 C   0  0  0  0  0  0  0  0  0  0  0  0
    8.4986  -10.4607   20.0940 C   0  0  0  0  0  0  0  0  0  0  0  0
    8.5833  -10.9596   18.8610 N   0  0  0  0  0  0  0  0  0  0  0  0
    7.8917  -10.1961   15.0441 H   0  0  0  0  0  0  0  0  0  0  0  0
    6.5011  -11.2653   15.0505 H   0  0  0  0  0  0  0  0  0  0  0  0
    6.9039  -10.4196   16.5240 H   0  0  0  0  0  0  0  0  0  0  0  0
    8.2061  -12.7766   15.2420 H   0  0  0  0  0  0  0  0  0  0  0  0
    7.7027  -12.3489   18.0440 H   0  0  0  0  0  0  0  0  0  0  0  0
    6.0549  -13.3615   15.8783 H   0  0  0  0  0  0  0  0  0  0  0  0
    5.6011  -12.4221   17.2985 H   0  0  0  0  0  0  0  0  0  0  0  0
    3.1434  -16.8694   20.3970 H   0  0  0  0  0  0  0  0  0  0  0  0
    1.9360  -16.2230   19.3159 H   0  0  0  0  0  0  0  0  0  0  0  0
    3.2911  -18.9242   19.3625 H   0  0  0  0  0  0  0  0  0  0  0  0
    1.5909  -18.5736   19.1100 H   0  0  0  0  0  0  0  0  0  0  0  0
    2.0312  -17.9756   16.7849 H   0  0  0  0  0  0  0  0  0  0  0  0
    2.7546  -19.5331   17.0830 H   0  0  0  0  0  0  0  0  0  0  0  0
    4.9718  -18.6222   17.1084 H   0  0  0  0  0  0  0  0  0  0  0  0
    4.1889  -17.8573   15.7316 H   0  0  0  0  0  0  0  0  0  0  0  0
    9.8894  -11.7190   14.0831 H   0  0  0  0  0  0  0  0  0  0  0  0
   12.3414  -11.7534   14.0334 H   0  0  0  0  0  0  0  0  0  0  0  0
   13.6156  -11.9470   16.1369 H   0  0  0  0  0  0  0  0  0  0  0  0
   12.4774  -11.9365   18.2715 H   0  0  0  0  0  0  0  0  0  0  0  0
   11.5779  -11.5035   20.0670 H   0  0  0  0  0  0  0  0  0  0  0  0
    9.9096  -10.2571   21.8155 H   0  0  0  0  0  0  0  0  0  0  0  0
    7.5572  -10.0416   20.4254 H   0  0  0  0  0  0  0  0  0  0  0  0
  1  2  1  0
  2  3  1  0
  3  4  1  0
  4  5  1  0
  5  6  2  0
  6  7  1  0
  7  8  2  0
  8  9  1  0
  8 10  1  0
 10 11  1  0
 11 12  1  0
 12 13  1  0
  2 14  1  0
 14 15  2  0
 15 16  1  0
 16 17  2  0
 17 18  1  0
 18 19  2  0
 19 20  1  0
 20 21  1  0
 21 22  2  0
 22 23  1  0
 23 24  2  0
  9  5  1  0
 19 14  1  0
 24 20  1  0
 13  7  1  0
  1 25  1  0
  1 26  1  0
  1 27  1  0
  2 28  1  0
  3 29  1  0
  4 30  1  0
  4 31  1  0
 10 32  1  0
 10 33  1  0
 11 34  1  0
 11 35  1  0
 12 36  1  0
 12 37  1  0
 13 38  1  0
 13 39  1  0
 15 40  1  0
 16 41  1  0
 17 42  1  0
 18 43  1  0
 21 44  1  0
 22 45  1  0
 23 46  1  0
M  END
>  <Energy>  (391) 
93.018228843316621

>  <compound_id>  (391) 
75977

>  <target_id>  (391) 
1

>  <reference_id>  (391) 
93

>  <inspiration_ids>  (391) 
[93, 112]

>  <energy_score>  (391) 
-79.65160204458192

>  <distance_score>  (391) 
15.489115380334924

>  <path>  (391) 
/opt/xchem-fragalysis-2/maxwin/BulkDock/SCRATCH/511017/C75977-P93/C75977-P93.minimised.mol

>  <scratch_subdir>  (391) 
/opt/xchem-fragalysis-2/maxwin/BulkDock/SCRATCH/511017/C75977-P93

>  <fragmenstein_runtime>  (391) 
10.726276636123657

>  <fragmenstein_outcome>  (391) 
too moved

>  <fragmenstein_mode>  (391) 
expansion

>  <fragmenstein_error>  (391) 


$$$$
C75977-P112
     RDKit          3D

 46 49  0  0  0  0  0  0  0  0999 V2000
   10.0499  -12.2018    9.5708 C   0  0  0  0  0  0  0  0  0  0  0  0
    9.7641  -11.0966   10.5954 C   0  0  0  0  0  0  0  0  0  0  0  0
    8.3228  -10.7355   10.5430 N   0  0  0  0  0  0  0  0  0  0  0  0
    7.4317  -11.3934   11.5420 C   0  0  0  0  0  0  0  0  0  0  0  0
    6.6299  -12.6927   11.1482 C   0  0  0  0  0  0  0  0  0  0  0  0
    5.6286  -12.8067   10.2691 N   0  0  0  0  0  0  0  0  0  0  0  0
    4.9359  -14.0482   10.4065 C   0  0  0  0  0  0  0  0  0  0  0  0
    5.4480  -14.8933   11.3652 C   0  0  0  0  0  0  0  0  0  0  0  0
    6.8346  -14.1652   12.0913 S   0  0  0  0  0  0  0  0  0  0  0  0
    4.8712  -16.2378   11.7434 C   0  0  0  0  0  0  0  0  0  0  0  0
    3.8630  -16.7395   10.6871 C   0  0  0  0  0  0  0  0  0  0  0  0
    2.9391  -15.6184   10.2108 C   0  0  0  0  0  0  0  0  0  0  0  0
    3.7298  -14.4346    9.5889 C   0  0  0  0  0  0  0  0  0  0  0  0
   10.7221   -9.9069   10.3382 C   0  0  0  0  0  0  0  0  0  0  0  0
   10.2688   -8.8485    9.5139 C   0  0  0  0  0  0  0  0  0  0  0  0
   11.1095   -7.8077    9.1053 C   0  0  0  0  0  0  0  0  0  0  0  0
   12.4477   -7.8113    9.4620 C   0  0  0  0  0  0  0  0  0  0  0  0
   12.9390   -8.8457   10.2493 C   0  0  0  0  0  0  0  0  0  0  0  0
   12.0854   -9.8570   10.7467 C   0  0  0  0  0  0  0  0  0  0  0  0
   12.6776  -10.7357   11.7000 N   0  0  0  0  0  0  0  0  0  0  0  0
   12.1250  -11.2363   12.8617 C   0  0  0  0  0  0  0  0  0  0  0  0
   13.1019  -11.9540   13.5094 C   0  0  0  0  0  0  0  0  0  0  0  0
   14.2206  -11.8509   12.6743 C   0  0  0  0  0  0  0  0  0  0  0  0
   13.9932  -11.0794   11.6123 N   0  0  0  0  0  0  0  0  0  0  0  0
    9.8701  -11.8590    8.5450 H   0  0  0  0  0  0  0  0  0  0  0  0
   11.0928  -12.5330    9.6288 H   0  0  0  0  0  0  0  0  0  0  0  0
    9.4185  -13.0789    9.7493 H   0  0  0  0  0  0  0  0  0  0  0  0
    9.9599  -11.5073   11.5822 H   0  0  0  0  0  0  0  0  0  0  0  0
    7.9359  -10.9137    9.6145 H   0  0  0  0  0  0  0  0  0  0  0  0
    7.9659  -11.5644   12.4843 H   0  0  0  0  0  0  0  0  0  0  0  0
    6.6534  -10.6558   11.7782 H   0  0  0  0  0  0  0  0  0  0  0  0
    5.6753  -16.9752   11.8494 H   0  0  0  0  0  0  0  0  0  0  0  0
    4.3933  -16.1408   12.7209 H   0  0  0  0  0  0  0  0  0  0  0  0
    3.2863  -17.5804   11.0849 H   0  0  0  0  0  0  0  0  0  0  0  0
    4.4189  -17.1251    9.8223 H   0  0  0  0  0  0  0  0  0  0  0  0
    2.3624  -15.2513   11.0663 H   0  0  0  0  0  0  0  0  0  0  0  0
    2.2346  -16.0174    9.4732 H   0  0  0  0  0  0  0  0  0  0  0  0
    4.0767  -14.7227    8.5892 H   0  0  0  0  0  0  0  0  0  0  0  0
    3.0878  -13.5582    9.4714 H   0  0  0  0  0  0  0  0  0  0  0  0
    9.2365   -8.8213    9.1684 H   0  0  0  0  0  0  0  0  0  0  0  0
   10.7103   -6.9977    8.4999 H   0  0  0  0  0  0  0  0  0  0  0  0
   13.1063   -7.0102    9.1387 H   0  0  0  0  0  0  0  0  0  0  0  0
   13.9928   -8.8206   10.5206 H   0  0  0  0  0  0  0  0  0  0  0  0
   11.1169  -11.0060   13.1654 H   0  0  0  0  0  0  0  0  0  0  0  0
   13.0100  -12.4835   14.4467 H   0  0  0  0  0  0  0  0  0  0  0  0
   15.2040  -12.2846   12.8042 H   0  0  0  0  0  0  0  0  0  0  0  0
  1  2  1  0
  2  3  1  0
  3  4  1  0
  4  5  1  0
  5  6  2  0
  6  7  1  0
  7  8  2  0
  8  9  1  0
  8 10  1  0
 10 11  1  0
 11 12  1  0
 12 13  1  0
  2 14  1  0
 14 15  2  0
 15 16  1  0
 16 17  2  0
 17 18  1  0
 18 19  2  0
 19 20  1  0
 20 21  1  0
 21 22  2  0
 22 23  1  0
 23 24  2  0
  9  5  1  0
 19 14  1  0
 24 20  1  0
 13  7  1  0
  1 25  1  0
  1 26  1  0
  1 27  1  0
  2 28  1  0
  3 29  1  0
  4 30  1  0
  4 31  1  0
 10 32  1  0
 10 33  1  0
 11 34  1  0
 11 35  1  0
 12 36  1  0
 12 37  1  0
 13 38  1  0
 13 39  1  0
 15 40  1  0
 16 41  1  0
 17 42  1  0
 18 43  1  0
 21 44  1  0
 22 45  1  0
 23 46  1  0
M  END
>  <Energy>  (392) 
87.98916248858751

>  <compound_id>  (392) 
75977

>  <target_id>  (392) 
1

>  <reference_id>  (392) 
112

>  <inspiration_ids>  (392) 
[93, 112]

>  <energy_score>  (392) 
-84.68066839930998

>  <distance_score>  (392) 
15.570819192321114

>  <path>  (392) 
/opt/xchem-fragalysis-2/maxwin/BulkDock/SCRATCH/511017/C75977-P112/C75977-P112.minimised.mol

>  <scratch_subdir>  (392) 
/opt/xchem-fragalysis-2/maxwin/BulkDock/SCRATCH/511017/C75977-P112

>  <fragmenstein_runtime>  (392) 
14.371041536331177

>  <fragmenstein_outcome>  (392) 
too moved

>  <fragmenstein_mode>  (392) 
expansion

>  <fragmenstein_error>  (392) 


$$$$
C87497-P93
     RDKit          3D

 49 50  0  0  0  0  0  0  0  0999 V2000
   -1.3031   -8.7610    6.0092 C   0  0  0  0  0  0  0  0  0  0  0  0
   -2.1032   -9.8779    5.2732 C   0  0  0  0  0  0  0  0  0  0  0  0
   -3.4521  -10.1950    5.8998 N   0  0  0  0  0  0  0  0  0  0  0  0
   -4.3600   -9.0560    5.8414 C   0  0  0  0  0  0  0  0  0  0  0  0
   -4.1145  -11.4852    5.6680 C   0  0  0  0  0  0  0  0  0  0  0  0
   -5.2049  -12.0224    6.5009 C   0  0  0  0  0  0  0  0  0  0  0  0
   -5.7812  -13.3912    6.4075 C   0  0  0  0  0  0  0  0  0  0  0  0
   -6.8149  -13.9492    7.4359 C   0  0  0  0  0  0  0  0  0  0  0  0
   -7.7364  -15.1677    7.3000 N   0  0  0  0  0  0  0  0  0  0  0  0
   -8.9338  -15.5615    8.0675 C   0  0  0  0  0  0  0  0  0  0  0  0
   -9.5308  -14.9803    8.9407 O   0  0  0  0  0  0  0  0  0  0  0  0
   -9.7109  -17.0130    7.7059 C   0  0  0  0  0  0  0  0  0  0  0  0
   -9.2652  -18.5741    7.8799 C   0  0  0  0  0  0  0  0  0  0  0  0
   -9.7380  -20.0649    8.8991 C   0  0  0  0  0  0  0  0  0  0  0  0
  -10.3355  -21.2392    8.0144 C   0  0  0  0  0  0  0  0  0  0  0  0
  -10.6278  -22.5357    8.7654 C   0  0  0  0  0  0  0  0  0  0  0  0
   -9.6129  -22.8637    9.6975 O   0  0  0  0  0  0  0  0  0  0  0  0
   -9.4699  -21.9882   10.8193 C   0  0  0  0  0  0  0  0  0  0  0  0
   -9.2692  -20.4728   10.4695 C   0  0  0  0  0  0  0  0  0  0  0  0
   -5.2024  -14.1740    5.4313 C   0  0  0  0  0  0  0  0  0  0  0  0
   -4.1785  -13.5971    4.6490 C   0  0  0  0  0  0  0  0  0  0  0  0
   -3.6318  -12.3296    4.7430 N   0  0  0  0  0  0  0  0  0  0  0  0
   -1.7116   -7.7752    5.7671 H   0  0  0  0  0  0  0  0  0  0  0  0
   -1.3498   -8.8848    7.0884 H   0  0  0  0  0  0  0  0  0  0  0  0
   -0.2581   -8.7767    5.6861 H   0  0  0  0  0  0  0  0  0  0  0  0
   -2.2678   -9.5691    4.2331 H   0  0  0  0  0  0  0  0  0  0  0  0
   -1.4832  -10.7785    5.2233 H   0  0  0  0  0  0  0  0  0  0  0  0
   -4.6910   -8.8887    4.8094 H   0  0  0  0  0  0  0  0  0  0  0  0
   -3.8895   -8.1316    6.1878 H   0  0  0  0  0  0  0  0  0  0  0  0
   -5.2552   -9.2060    6.4541 H   0  0  0  0  0  0  0  0  0  0  0  0
   -5.5774  -11.3705    7.2881 H   0  0  0  0  0  0  0  0  0  0  0  0
   -6.2438  -14.1628    8.3476 H   0  0  0  0  0  0  0  0  0  0  0  0
   -7.4952  -13.1254    7.6841 H   0  0  0  0  0  0  0  0  0  0  0  0
   -7.4595  -15.9349    6.7037 H   0  0  0  0  0  0  0  0  0  0  0  0
   -9.9220  -16.8746    6.6354 H   0  0  0  0  0  0  0  0  0  0  0  0
  -10.6665  -16.9217    8.2364 H   0  0  0  0  0  0  0  0  0  0  0  0
   -8.1951  -18.4139    8.0076 H   0  0  0  0  0  0  0  0  0  0  0  0
   -9.4051  -18.9672    6.8598 H   0  0  0  0  0  0  0  0  0  0  0  0
   -8.8272  -20.5988    8.8401 H   0  0  0  0  0  0  0  0  0  0  0  0
   -9.5872  -21.5182    7.2559 H   0  0  0  0  0  0  0  0  0  0  0  0
  -11.1546  -20.9397    7.3777 H   0  0  0  0  0  0  0  0  0  0  0  0
  -10.6670  -23.3546    8.0376 H   0  0  0  0  0  0  0  0  0  0  0  0
  -11.6020  -22.5318    9.2410 H   0  0  0  0  0  0  0  0  0  0  0  0
   -8.6118  -22.3393   11.4012 H   0  0  0  0  0  0  0  0  0  0  0  0
  -10.3212  -22.1480   11.4877 H   0  0  0  0  0  0  0  0  0  0  0  0
   -9.6997  -19.8562   11.2607 H   0  0  0  0  0  0  0  0  0  0  0  0
   -8.2287  -20.2297   10.6530 H   0  0  0  0  0  0  0  0  0  0  0  0
   -5.4967  -15.2022    5.2623 H   0  0  0  0  0  0  0  0  0  0  0  0
   -3.7116  -14.1987    3.8689 H   0  0  0  0  0  0  0  0  0  0  0  0
  1  2  1  0
  2  3  1  0
  3  4  1  0
  3  5  1  0
  5  6  2  0
  6  7  1  0
  7  8  1  0
  8  9  1  0
  9 10  1  0
 10 11  2  0
 10 12  1  0
 12 13  1  0
 13 14  1  0
 14 15  1  0
 15 16  1  0
 16 17  1  0
 17 18  1  0
 18 19  1  0
  7 20  2  0
 20 21  1  0
 21 22  2  0
 22  5  1  0
 19 14  1  0
  1 23  1  0
  1 24  1  0
  1 25  1  0
  2 26  1  0
  2 27  1  0
  4 28  1  0
  4 29  1  0
  4 30  1  0
  6 31  1  0
  8 32  1  0
  8 33  1  0
  9 34  1  0
 12 35  1  0
 12 36  1  0
 13 37  1  0
 13 38  1  0
 14 39  1  0
 15 40  1  0
 15 41  1  0
 16 42  1  0
 16 43  1  0
 18 44  1  0
 18 45  1  0
 19 46  1  0
 19 47  1  0
 20 48  1  0
 21 49  1  0
M  END
>  <Energy>  (393) 
143.67812890763958

>  <compound_id>  (393) 
87497

>  <target_id>  (393) 
1

>  <reference_id>  (393) 
93

>  <inspiration_ids>  (393) 
[93, 112]

>  <energy_score>  (393) 
122.94377434711771

>  <distance_score>  (393) 
14.96145284768954

>  <path>  (393) 
/opt/xchem-fragalysis-2/maxwin/BulkDock/SCRATCH/511017/C87497-P93/C87497-P93.minimised.mol

>  <scratch_subdir>  (393) 
/opt/xchem-fragalysis-2/maxwin/BulkDock/SCRATCH/511017/C87497-P93

>  <fragmenstein_runtime>  (393) 
10.396604299545288

>  <fragmenstein_outcome>  (393) 
too moved

>  <fragmenstein_mode>  (393) 
expansion

>  <fragmenstein_error>  (393) 


$$$$
C87497-P112
     RDKit          3D

 49 50  0  0  0  0  0  0  0  0999 V2000
    0.5136  -11.3440   11.6398 C   0  0  0  0  0  0  0  0  0  0  0  0
    0.2421  -12.1891   12.8369 C   0  0  0  0  0  0  0  0  0  0  0  0
    0.1895  -13.6009   12.8191 N   0  0  0  0  0  0  0  0  0  0  0  0
    0.6971  -14.2648   11.7255 C   0  0  0  0  0  0  0  0  0  0  0  0
   -0.9817  -14.2564   13.0263 C   0  0  0  0  0  0  0  0  0  0  0  0
   -1.8971  -14.7454   14.6681 C   0  0  0  0  0  0  0  0  0  0  0  0
   -3.3302  -16.0649   14.6358 C   0  0  0  0  0  0  0  0  0  0  0  0
   -3.6754  -17.4643   15.2609 C   0  0  0  0  0  0  0  0  0  0  0  0
   -2.9164  -18.5494   14.5755 N   0  0  0  0  0  0  0  0  0  0  0  0
   -3.1845  -19.2616   13.3547 C   0  0  0  0  0  0  0  0  0  0  0  0
   -4.1250  -19.2187   12.6215 O   0  0  0  0  0  0  0  0  0  0  0  0
   -2.0121  -20.1591   12.8872 C   0  0  0  0  0  0  0  0  0  0  0  0
   -2.2099  -21.6862   12.9683 C   0  0  0  0  0  0  0  0  0  0  0  0
   -2.7382  -22.5118   11.7314 C   0  0  0  0  0  0  0  0  0  0  0  0
   -4.0993  -22.1501   11.1017 C   0  0  0  0  0  0  0  0  0  0  0  0
   -5.1744  -23.2525   10.9822 C   0  0  0  0  0  0  0  0  0  0  0  0
   -4.8639  -24.5660   11.4131 O   0  0  0  0  0  0  0  0  0  0  0  0
   -3.5116  -24.8829   11.1652 C   0  0  0  0  0  0  0  0  0  0  0  0
   -2.6292  -24.0211   12.0496 C   0  0  0  0  0  0  0  0  0  0  0  0
   -4.1860  -16.2063   13.1053 C   0  0  0  0  0  0  0  0  0  0  0  0
   -3.4876  -15.4494   11.7703 C   0  0  0  0  0  0  0  0  0  0  0  0
   -1.8980  -14.7037   11.6133 N   0  0  0  0  0  0  0  0  0  0  0  0
   -0.3353  -11.5504   11.0155 H   0  0  0  0  0  0  0  0  0  0  0  0
    1.4720  -11.4508   11.1521 H   0  0  0  0  0  0  0  0  0  0  0  0
    0.5312  -10.2906   11.8165 H   0  0  0  0  0  0  0  0  0  0  0  0
    1.0342  -12.0341   13.5533 H   0  0  0  0  0  0  0  0  0  0  0  0
   -0.6725  -11.7995   13.2336 H   0  0  0  0  0  0  0  0  0  0  0  0
    1.2372  -15.1628   11.8992 H   0  0  0  0  0  0  0  0  0  0  0  0
    1.2642  -13.5215   11.2428 H   0  0  0  0  0  0  0  0  0  0  0  0
   -0.0213  -14.7481   11.0838 H   0  0  0  0  0  0  0  0  0  0  0  0
   -1.5641  -15.7789   14.7450 H   0  0  0  0  0  0  0  0  0  0  0  0
   -3.6291  -17.5269   16.3542 H   0  0  0  0  0  0  0  0  0  0  0  0
   -4.7359  -17.6523   15.0520 H   0  0  0  0  0  0  0  0  0  0  0  0
   -2.0546  -18.8972   14.9777 H   0  0  0  0  0  0  0  0  0  0  0  0
   -1.1269  -19.9056   13.4827 H   0  0  0  0  0  0  0  0  0  0  0  0
   -1.7651  -19.8682   11.8587 H   0  0  0  0  0  0  0  0  0  0  0  0
   -2.7117  -21.9235   13.9052 H   0  0  0  0  0  0  0  0  0  0  0  0
   -1.1949  -22.0833   13.1316 H   0  0  0  0  0  0  0  0  0  0  0  0
   -2.0002  -22.3209   10.9373 H   0  0  0  0  0  0  0  0  0  0  0  0
   -3.9031  -21.7893   10.0815 H   0  0  0  0  0  0  0  0  0  0  0  0
   -4.5487  -21.2824   11.5857 H   0  0  0  0  0  0  0  0  0  0  0  0
   -5.4962  -23.3240    9.9381 H   0  0  0  0  0  0  0  0  0  0  0  0
   -6.0342  -22.9613   11.5860 H   0  0  0  0  0  0  0  0  0  0  0  0
   -3.2739  -24.7597   10.1018 H   0  0  0  0  0  0  0  0  0  0  0  0
   -3.3640  -25.9383   11.4159 H   0  0  0  0  0  0  0  0  0  0  0  0
   -2.8960  -24.2057   13.0964 H   0  0  0  0  0  0  0  0  0  0  0  0
   -1.5839  -24.3350   11.9392 H   0  0  0  0  0  0  0  0  0  0  0  0
   -4.9394  -16.9680   12.9449 H   0  0  0  0  0  0  0  0  0  0  0  0
   -3.8162  -14.5520   12.4090 H   0  0  0  0  0  0  0  0  0  0  0  0
  1  2  1  0
  2  3  1  0
  3  4  1  0
  3  5  1  0
  5  6  2  0
  6  7  1  0
  7  8  1  0
  8  9  1  0
  9 10  1  0
 10 11  2  0
 10 12  1  0
 12 13  1  0
 13 14  1  0
 14 15  1  0
 15 16  1  0
 16 17  1  0
 17 18  1  0
 18 19  1  0
  7 20  2  0
 20 21  1  0
 21 22  2  0
 22  5  1  0
 19 14  1  0
  1 23  1  0
  1 24  1  0
  1 25  1  0
  2 26  1  0
  2 27  1  0
  4 28  1  0
  4 29  1  0
  4 30  1  0
  6 31  1  0
  8 32  1  0
  8 33  1  0
  9 34  1  0
 12 35  1  0
 12 36  1  0
 13 37  1  0
 13 38  1  0
 14 39  1  0
 15 40  1  0
 15 41  1  0
 16 42  1  0
 16 43  1  0
 18 44  1  0
 18 45  1  0
 19 46  1  0
 19 47  1  0
 20 48  1  0
 21 49  1  0
M  END
>  <Energy>  (394) 
494.46937093596279

>  <compound_id>  (394) 
87497

>  <target_id>  (394) 
1

>  <reference_id>  (394) 
112

>  <inspiration_ids>  (394) 
[93, 112]

>  <energy_score>  (394) 
473.7350163754363

>  <distance_score>  (394) 
14.22154664951868

>  <path>  (394) 
/opt/xchem-fragalysis-2/maxwin/BulkDock/SCRATCH/511017/C87497-P112/C87497-P112.minimised.mol

>  <scratch_subdir>  (394) 
/opt/xchem-fragalysis-2/maxwin/BulkDock/SCRATCH/511017/C87497-P112

>  <fragmenstein_runtime>  (394) 
14.555663824081421

>  <fragmenstein_outcome>  (394) 
too moved

>  <fragmenstein_mode>  (394) 
expansion

>  <fragmenstein_error>  (394) 


$$$$
C74607-P93
     RDKit          3D

 44 46  0  0  0  0  0  0  0  0999 V2000
    2.4115   -8.4317   10.6156 C   0  0  0  0  0  0  0  0  0  0  0  0
    3.5544   -9.0756   10.2768 C   0  0  0  0  0  0  0  0  0  0  0  0
    5.0377   -8.4201   10.0047 C   0  0  0  0  0  0  0  0  0  0  0  0
    5.5500   -6.8804    9.8594 C   0  0  0  0  0  0  0  0  0  0  0  0
    6.9498   -6.8054    9.3011 N   0  0  0  0  0  0  0  0  0  0  0  0
    7.7833   -5.5563    9.3451 C   0  0  0  0  0  0  0  0  0  0  0  0
    8.3973   -5.3961   10.7203 C   0  0  0  0  0  0  0  0  0  0  0  0
    7.9921   -6.6118   12.1650 C   0  0  0  0  0  0  0  0  0  0  0  0
    8.7210   -5.5689   13.8155 C   0  0  0  0  0  0  0  0  0  0  0  0
   10.5179   -4.8405   13.2452 C   0  0  0  0  0  0  0  0  0  0  0  0
   11.2510   -3.7847   14.0564 C   0  0  0  0  0  0  0  0  0  0  0  0
   12.0482   -2.7037   13.7457 C   0  0  0  0  0  0  0  0  0  0  0  0
   12.4384   -2.1414   14.9778 C   0  0  0  0  0  0  0  0  0  0  0  0
   11.9487   -2.8185   16.0167 N   0  0  0  0  0  0  0  0  0  0  0  0
   11.2619   -3.8138   15.4271 N   0  0  0  0  0  0  0  0  0  0  0  0
   10.3157   -4.6943   11.2778 O   0  0  0  0  0  0  0  0  0  0  0  0
    3.4840  -10.6277   10.1027 C   0  0  0  0  0  0  0  0  0  0  0  0
    2.1800  -11.2896    9.5648 C   0  0  0  0  0  0  0  0  0  0  0  0
    1.0686  -11.5387   10.5826 C   0  0  0  0  0  0  0  0  0  0  0  0
    0.8826  -10.3959   11.5679 C   0  0  0  0  0  0  0  0  0  0  0  0
    1.0157   -8.9929   10.9502 C   0  0  0  0  0  0  0  0  0  0  0  0
    2.4646   -7.3451   10.6894 H   0  0  0  0  0  0  0  0  0  0  0  0
    5.6790   -8.8762   10.7722 H   0  0  0  0  0  0  0  0  0  0  0  0
    5.3316   -8.8819    9.0500 H   0  0  0  0  0  0  0  0  0  0  0  0
    5.4491   -6.4074   10.8356 H   0  0  0  0  0  0  0  0  0  0  0  0
    4.8784   -6.3654    9.1646 H   0  0  0  0  0  0  0  0  0  0  0  0
    7.5238   -7.5642    9.6716 H   0  0  0  0  0  0  0  0  0  0  0  0
    7.1619   -4.6899    9.0999 H   0  0  0  0  0  0  0  0  0  0  0  0
    8.5750   -5.6376    8.5939 H   0  0  0  0  0  0  0  0  0  0  0  0
    7.1881   -7.3544   12.1985 H   0  0  0  0  0  0  0  0  0  0  0  0
    8.4496   -6.2563   14.6665 H   0  0  0  0  0  0  0  0  0  0  0  0
   12.3272   -2.3518   12.7716 H   0  0  0  0  0  0  0  0  0  0  0  0
   13.0618   -1.2745   15.1527 H   0  0  0  0  0  0  0  0  0  0  0  0
   10.8343   -4.5301   16.0032 H   0  0  0  0  0  0  0  0  0  0  0  0
    3.7848  -11.0977   11.0471 H   0  0  0  0  0  0  0  0  0  0  0  0
    4.2637  -10.8872    9.3740 H   0  0  0  0  0  0  0  0  0  0  0  0
    1.7911  -10.6807    8.7385 H   0  0  0  0  0  0  0  0  0  0  0  0
    2.4454  -12.2578    9.1209 H   0  0  0  0  0  0  0  0  0  0  0  0
    1.2771  -12.4579   11.1430 H   0  0  0  0  0  0  0  0  0  0  0  0
    0.1346  -11.7133   10.0364 H   0  0  0  0  0  0  0  0  0  0  0  0
   -0.1078  -10.4918   12.0287 H   0  0  0  0  0  0  0  0  0  0  0  0
    1.6087  -10.4952   12.3847 H   0  0  0  0  0  0  0  0  0  0  0  0
    0.5909   -8.2948   11.6847 H   0  0  0  0  0  0  0  0  0  0  0  0
    0.3847   -8.9086   10.0572 H   0  0  0  0  0  0  0  0  0  0  0  0
  1  2  2  0
  2  3  1  0
  3  4  1  0
  4  5  1  0
  5  6  1  0
  6  7  1  0
  7  8  2  0
  8  9  1  0
  9 10  2  0
 10 11  1  0
 11 12  2  0
 12 13  1  0
 13 14  2  0
 14 15  1  0
 10 16  1  0
  2 17  1  0
 17 18  1  0
 18 19  1  0
 19 20  1  0
 20 21  1  0
 21  1  1  0
 16  7  1  0
 15 11  1  0
  1 22  1  0
  3 23  1  0
  3 24  1  0
  4 25  1  0
  4 26  1  0
  5 27  1  0
  6 28  1  0
  6 29  1  0
  8 30  1  0
  9 31  1  0
 12 32  1  0
 13 33  1  0
 15 34  1  0
 17 35  1  0
 17 36  1  0
 18 37  1  0
 18 38  1  0
 19 39  1  0
 19 40  1  0
 20 41  1  0
 20 42  1  0
 21 43  1  0
 21 44  1  0
M  END
>  <Energy>  (395) 
710.75102749032567

>  <compound_id>  (395) 
74607

>  <target_id>  (395) 
1

>  <reference_id>  (395) 
93

>  <inspiration_ids>  (395) 
[93, 112]

>  <energy_score>  (395) 
631.0793451990743

>  <distance_score>  (395) 
14.522210736986489

>  <path>  (395) 
/opt/xchem-fragalysis-2/maxwin/BulkDock/SCRATCH/511017/C74607-P93/C74607-P93.minimised.mol

>  <scratch_subdir>  (395) 
/opt/xchem-fragalysis-2/maxwin/BulkDock/SCRATCH/511017/C74607-P93

>  <fragmenstein_runtime>  (395) 
10.243768453598022

>  <fragmenstein_outcome>  (395) 
too moved

>  <fragmenstein_mode>  (395) 
expansion

>  <fragmenstein_error>  (395) 


$$$$
C74607-P112
     RDKit          3D

 44 46  0  0  0  0  0  0  0  0999 V2000
   -0.5809   -7.5540   15.9092 C   0  0  0  0  0  0  0  0  0  0  0  0
    0.0912   -7.4524   17.0822 C   0  0  0  0  0  0  0  0  0  0  0  0
    1.2738   -6.3890   17.2708 C   0  0  0  0  0  0  0  0  0  0  0  0
    2.7530   -6.8950   17.3517 C   0  0  0  0  0  0  0  0  0  0  0  0
    3.7618   -5.8260   17.5591 N   0  0  0  0  0  0  0  0  0  0  0  0
    5.1263   -6.3696   17.5246 C   0  0  0  0  0  0  0  0  0  0  0  0
    5.6877   -6.7191   18.8626 C   0  0  0  0  0  0  0  0  0  0  0  0
    5.7800   -7.9112   19.5456 C   0  0  0  0  0  0  0  0  0  0  0  0
    6.6454   -7.6844   20.6438 C   0  0  0  0  0  0  0  0  0  0  0  0
    7.0162   -6.3559   20.6047 C   0  0  0  0  0  0  0  0  0  0  0  0
    7.9722   -5.6683   21.4047 C   0  0  0  0  0  0  0  0  0  0  0  0
    9.2206   -6.0327   21.8582 C   0  0  0  0  0  0  0  0  0  0  0  0
    9.7054   -4.8954   22.5302 C   0  0  0  0  0  0  0  0  0  0  0  0
    8.8055   -3.9095   22.5644 N   0  0  0  0  0  0  0  0  0  0  0  0
    7.7846   -4.3864   21.8307 N   0  0  0  0  0  0  0  0  0  0  0  0
    6.3864   -5.7585   19.5396 O   0  0  0  0  0  0  0  0  0  0  0  0
   -0.3343   -8.2632   18.3074 C   0  0  0  0  0  0  0  0  0  0  0  0
   -1.1429   -9.5638   18.1148 C   0  0  0  0  0  0  0  0  0  0  0  0
   -2.6224   -9.3832   17.7834 C   0  0  0  0  0  0  0  0  0  0  0  0
   -2.9287   -8.5182   16.5673 C   0  0  0  0  0  0  0  0  0  0  0  0
   -1.8243   -8.3384   15.5226 C   0  0  0  0  0  0  0  0  0  0  0  0
   -0.2122   -6.9456   15.0816 H   0  0  0  0  0  0  0  0  0  0  0  0
    1.2092   -5.6651   16.4473 H   0  0  0  0  0  0  0  0  0  0  0  0
    1.0436   -5.8255   18.1848 H   0  0  0  0  0  0  0  0  0  0  0  0
    2.9673   -7.4297   16.4179 H   0  0  0  0  0  0  0  0  0  0  0  0
    2.8231   -7.6186   18.1720 H   0  0  0  0  0  0  0  0  0  0  0  0
    3.6592   -5.1450   16.8084 H   0  0  0  0  0  0  0  0  0  0  0  0
    5.7940   -5.6529   17.0612 H   0  0  0  0  0  0  0  0  0  0  0  0
    5.1716   -7.2462   16.8663 H   0  0  0  0  0  0  0  0  0  0  0  0
    5.3305   -8.8487   19.2486 H   0  0  0  0  0  0  0  0  0  0  0  0
    6.9833   -8.4134   21.3676 H   0  0  0  0  0  0  0  0  0  0  0  0
    9.7291   -6.9721   21.7037 H   0  0  0  0  0  0  0  0  0  0  0  0
   10.6644   -4.7507   23.0104 H   0  0  0  0  0  0  0  0  0  0  0  0
    6.9786   -3.7916   21.6568 H   0  0  0  0  0  0  0  0  0  0  0  0
    0.5908   -8.5539   18.8228 H   0  0  0  0  0  0  0  0  0  0  0  0
   -0.8703   -7.5969   18.9946 H   0  0  0  0  0  0  0  0  0  0  0  0
   -0.6239  -10.1707   17.3707 H   0  0  0  0  0  0  0  0  0  0  0  0
   -1.0872  -10.1332   19.0520 H   0  0  0  0  0  0  0  0  0  0  0  0
   -3.1220   -8.9344   18.6525 H   0  0  0  0  0  0  0  0  0  0  0  0
   -3.0977  -10.3624   17.6757 H   0  0  0  0  0  0  0  0  0  0  0  0
   -3.8284   -8.9054   16.0749 H   0  0  0  0  0  0  0  0  0  0  0  0
   -3.2092   -7.5188   16.9280 H   0  0  0  0  0  0  0  0  0  0  0  0
   -1.5053   -9.2715   15.0671 H   0  0  0  0  0  0  0  0  0  0  0  0
   -2.2861   -7.7731   14.7001 H   0  0  0  0  0  0  0  0  0  0  0  0
  1  2  2  0
  2  3  1  0
  3  4  1  0
  4  5  1  0
  5  6  1  0
  6  7  1  0
  7  8  2  0
  8  9  1  0
  9 10  2  0
 10 11  1  0
 11 12  2  0
 12 13  1  0
 13 14  2  0
 14 15  1  0
 10 16  1  0
  2 17  1  0
 17 18  1  0
 18 19  1  0
 19 20  1  0
 20 21  1  0
 21  1  1  0
 16  7  1  0
 15 11  1  0
  1 22  1  0
  3 23  1  0
  3 24  1  0
  4 25  1  0
  4 26  1  0
  5 27  1  0
  6 28  1  0
  6 29  1  0
  8 30  1  0
  9 31  1  0
 12 32  1  0
 13 33  1  0
 15 34  1  0
 17 35  1  0
 17 36  1  0
 18 37  1  0
 18 38  1  0
 19 39  1  0
 19 40  1  0
 20 41  1  0
 20 42  1  0
 21 43  1  0
 21 44  1  0
M  END
>  <Energy>  (396) 
45.023577396794259

>  <compound_id>  (396) 
74607

>  <target_id>  (396) 
1

>  <reference_id>  (396) 
112

>  <inspiration_ids>  (396) 
[93, 112]

>  <energy_score>  (396) 
-34.64810489445779

>  <distance_score>  (396) 
15.018926835410047

>  <path>  (396) 
/opt/xchem-fragalysis-2/maxwin/BulkDock/SCRATCH/511017/C74607-P112/C74607-P112.minimised.mol

>  <scratch_subdir>  (396) 
/opt/xchem-fragalysis-2/maxwin/BulkDock/SCRATCH/511017/C74607-P112

>  <fragmenstein_runtime>  (396) 
13.484617233276367

>  <fragmenstein_outcome>  (396) 
too moved

>  <fragmenstein_mode>  (396) 
expansion

>  <fragmenstein_error>  (396) 


$$$$
C37110-P93
     RDKit          3D

 47 49  0  0  0  0  0  0  0  0999 V2000
    3.4047   -6.7169   15.3216 C   0  0  0  0  0  0  0  0  0  0  0  0
    3.7951   -8.0926   14.0068 C   0  0  0  0  0  0  0  0  0  0  0  0
    3.9301   -9.9418   13.5560 N   0  0  0  0  0  0  0  0  0  0  0  0
    2.1675  -11.0506   12.6719 C   0  0  0  0  0  0  0  0  0  0  0  0
    0.3746  -12.5459   12.5141 C   0  0  0  0  0  0  0  0  0  0  0  0
   -1.2416  -13.8935   11.8338 N   0  0  0  0  0  0  0  0  0  0  0  0
   -3.2041  -14.2756   12.5848 C   0  0  0  0  0  0  0  0  0  0  0  0
   -3.3171  -13.7166   13.5681 O   0  0  0  0  0  0  0  0  0  0  0  0
   -4.9992  -15.0420   12.2029 C   0  0  0  0  0  0  0  0  0  0  0  0
   -6.0484  -15.6954   11.1379 N   0  0  0  0  0  0  0  0  0  0  0  0
   -7.2581  -16.2309   11.6000 C   0  0  0  0  0  0  0  0  0  0  0  0
   -7.6875  -17.1387   10.6646 C   0  0  0  0  0  0  0  0  0  0  0  0
   -6.7136  -17.0816    9.6552 C   0  0  0  0  0  0  0  0  0  0  0  0
   -5.7210  -16.2255    9.9232 N   0  0  0  0  0  0  0  0  0  0  0  0
    5.3960   -8.3755   13.9171 C   0  0  0  0  0  0  0  0  0  0  0  0
    6.3748   -7.0203   15.2937 C   0  0  0  0  0  0  0  0  0  0  0  0
    6.0803   -5.6913   16.0616 C   0  0  0  0  0  0  0  0  0  0  0  0
    6.0026   -3.8691   15.3379 C   0  0  0  0  0  0  0  0  0  0  0  0
    7.4016   -3.1101   15.1641 C   0  0  0  0  0  0  0  0  0  0  0  0
    8.0874   -1.9018   14.9672 C   0  0  0  0  0  0  0  0  0  0  0  0
    9.4541   -2.1642   15.0418 C   0  0  0  0  0  0  0  0  0  0  0  0
    9.6744   -3.5437   15.0078 N   0  0  0  0  0  0  0  0  0  0  0  0
    8.4160   -4.2431   15.3587 C   0  0  0  0  0  0  0  0  0  0  0  0
    7.6911   -6.0631   15.4119 C   0  0  0  0  0  0  0  0  0  0  0  0
    2.9717   -5.8015   14.8911 H   0  0  0  0  0  0  0  0  0  0  0  0
    4.0775   -6.4319   16.0831 H   0  0  0  0  0  0  0  0  0  0  0  0
    2.7269   -7.1392   16.0955 H   0  0  0  0  0  0  0  0  0  0  0  0
    3.8140   -7.7197   12.9455 H   0  0  0  0  0  0  0  0  0  0  0  0
    3.0431   -8.4984   14.6731 H   0  0  0  0  0  0  0  0  0  0  0  0
    2.0584  -11.2788   13.6696 H   0  0  0  0  0  0  0  0  0  0  0  0
    2.5816  -11.1083   11.6434 H   0  0  0  0  0  0  0  0  0  0  0  0
   -0.2099  -11.7202   12.0848 H   0  0  0  0  0  0  0  0  0  0  0  0
    0.1320  -12.6670   13.5426 H   0  0  0  0  0  0  0  0  0  0  0  0
   -1.1022  -14.4572   11.0006 H   0  0  0  0  0  0  0  0  0  0  0  0
   -5.7031  -14.2221   12.4894 H   0  0  0  0  0  0  0  0  0  0  0  0
   -5.2632  -15.6700   13.0565 H   0  0  0  0  0  0  0  0  0  0  0  0
   -7.6470  -15.9392   12.5648 H   0  0  0  0  0  0  0  0  0  0  0  0
   -8.5729  -17.7552   10.7066 H   0  0  0  0  0  0  0  0  0  0  0  0
   -6.6755  -17.6387    8.7285 H   0  0  0  0  0  0  0  0  0  0  0  0
    5.5478   -7.6725   13.0641 H   0  0  0  0  0  0  0  0  0  0  0  0
    6.3947   -8.7811   13.8409 H   0  0  0  0  0  0  0  0  0  0  0  0
    5.3932   -5.7650   16.9333 H   0  0  0  0  0  0  0  0  0  0  0  0
    5.0365   -3.3226   15.3527 H   0  0  0  0  0  0  0  0  0  0  0  0
    7.6637   -0.9260   14.8103 H   0  0  0  0  0  0  0  0  0  0  0  0
   10.3017   -1.4979   14.9456 H   0  0  0  0  0  0  0  0  0  0  0  0
   10.5645   -4.0219   14.9779 H   0  0  0  0  0  0  0  0  0  0  0  0
    8.4200   -6.6686   14.8387 H   0  0  0  0  0  0  0  0  0  0  0  0
  1  2  1  0
  2  3  1  0
  3  4  1  0
  4  5  1  0
  5  6  1  0
  6  7  1  0
  7  8  2  0
  7  9  1  0
  9 10  1  0
 10 11  1  0
 11 12  2  0
 12 13  1  0
 13 14  2  0
  3 15  1  0
 15 16  1  0
 16 17  2  0
 17 18  1  0
 18 19  2  0
 19 20  1  0
 20 21  2  0
 21 22  1  0
 22 23  1  0
 23 24  2  0
 14 10  1  0
 24 16  1  0
 23 19  1  0
  1 25  1  0
  1 26  1  0
  1 27  1  0
  2 28  1  0
  2 29  1  0
  4 30  1  0
  4 31  1  0
  5 32  1  0
  5 33  1  0
  6 34  1  0
  9 35  1  0
  9 36  1  0
 11 37  1  0
 12 38  1  0
 13 39  1  0
 15 40  1  0
 15 41  1  0
 17 42  1  0
 18 43  1  0
 20 44  1  0
 21 45  1  0
 22 46  1  0
 24 47  1  0
M  END
>  <Energy>  (397) 
2332.1694890122453

>  <compound_id>  (397) 
37110

>  <target_id>  (397) 
1

>  <reference_id>  (397) 
93

>  <inspiration_ids>  (397) 
[93, 112]

>  <energy_score>  (397) 
2246.888122586171

>  <distance_score>  (397) 
9.96258257450312

>  <path>  (397) 
/opt/xchem-fragalysis-2/maxwin/BulkDock/SCRATCH/511017/C37110-P93/C37110-P93.minimised.mol

>  <scratch_subdir>  (397) 
/opt/xchem-fragalysis-2/maxwin/BulkDock/SCRATCH/511017/C37110-P93

>  <fragmenstein_runtime>  (397) 
21.422711610794067

>  <fragmenstein_outcome>  (397) 
too moved

>  <fragmenstein_mode>  (397) 
expansion

>  <fragmenstein_error>  (397) 


$$$$
C37110-P112
     RDKit          3D

 47 49  0  0  0  0  0  0  0  0999 V2000
    2.7837   -5.3682   15.3793 C   0  0  0  0  0  0  0  0  0  0  0  0
    3.3862   -6.8888   15.4331 C   0  0  0  0  0  0  0  0  0  0  0  0
    4.1074   -8.1161   14.1174 N   0  0  0  0  0  0  0  0  0  0  0  0
    3.2486  -10.1315   14.1160 C   0  0  0  0  0  0  0  0  0  0  0  0
    1.4955  -11.6032   13.6842 C   0  0  0  0  0  0  0  0  0  0  0  0
   -0.1228  -13.0360   13.5429 N   0  0  0  0  0  0  0  0  0  0  0  0
   -1.1875  -14.0583   15.0127 C   0  0  0  0  0  0  0  0  0  0  0  0
   -0.8262  -13.9345   16.2368 O   0  0  0  0  0  0  0  0  0  0  0  0
   -2.8763  -15.3379   14.9448 C   0  0  0  0  0  0  0  0  0  0  0  0
   -3.8203  -16.3114   16.2358 N   0  0  0  0  0  0  0  0  0  0  0  0
   -4.0605  -17.6823   16.1023 C   0  0  0  0  0  0  0  0  0  0  0  0
   -5.3822  -17.9170   15.7573 C   0  0  0  0  0  0  0  0  0  0  0  0
   -5.9386  -16.9214   16.5088 C   0  0  0  0  0  0  0  0  0  0  0  0
   -4.9736  -16.1156   16.9511 N   0  0  0  0  0  0  0  0  0  0  0  0
    5.8595   -6.9587   14.4166 C   0  0  0  0  0  0  0  0  0  0  0  0
    6.5630   -5.3061   15.6250 C   0  0  0  0  0  0  0  0  0  0  0  0
    5.8322   -3.5543   15.2131 C   0  0  0  0  0  0  0  0  0  0  0  0
    6.1599   -2.0913   14.6805 C   0  0  0  0  0  0  0  0  0  0  0  0
    7.4636   -1.6330   14.8262 C   0  0  0  0  0  0  0  0  0  0  0  0
    8.1242   -0.3717   14.8405 C   0  0  0  0  0  0  0  0  0  0  0  0
    9.4583   -0.5937   15.1156 C   0  0  0  0  0  0  0  0  0  0  0  0
    9.6358   -1.9516   15.1149 N   0  0  0  0  0  0  0  0  0  0  0  0
    8.3871   -2.5816   15.1987 C   0  0  0  0  0  0  0  0  0  0  0  0
    8.0642   -4.1409   15.5893 C   0  0  0  0  0  0  0  0  0  0  0  0
    2.8887   -4.8461   14.4294 H   0  0  0  0  0  0  0  0  0  0  0  0
    3.2246   -4.7626   16.1796 H   0  0  0  0  0  0  0  0  0  0  0  0
    1.7136   -5.3616   15.6300 H   0  0  0  0  0  0  0  0  0  0  0  0
    2.7700   -7.5234   16.1049 H   0  0  0  0  0  0  0  0  0  0  0  0
    4.1353   -6.5293   16.1745 H   0  0  0  0  0  0  0  0  0  0  0  0
    3.8595  -10.6432   14.9015 H   0  0  0  0  0  0  0  0  0  0  0  0
    3.9719  -10.2484   13.3208 H   0  0  0  0  0  0  0  0  0  0  0  0
    1.2009  -11.3311   12.6149 H   0  0  0  0  0  0  0  0  0  0  0  0
    1.7601  -12.3788   14.3855 H   0  0  0  0  0  0  0  0  0  0  0  0
   -0.5801  -13.1710   12.6554 H   0  0  0  0  0  0  0  0  0  0  0  0
   -3.5527  -15.9657   14.2386 H   0  0  0  0  0  0  0  0  0  0  0  0
   -2.4023  -16.3153   14.8223 H   0  0  0  0  0  0  0  0  0  0  0  0
   -3.5455  -18.1940   16.8908 H   0  0  0  0  0  0  0  0  0  0  0  0
   -5.8840  -18.8288   15.4763 H   0  0  0  0  0  0  0  0  0  0  0  0
   -6.9601  -16.7581   16.8256 H   0  0  0  0  0  0  0  0  0  0  0  0
    5.9736   -6.9959   13.3114 H   0  0  0  0  0  0  0  0  0  0  0  0
    6.6337   -7.6571   14.6464 H   0  0  0  0  0  0  0  0  0  0  0  0
    4.7203   -3.4403   15.4898 H   0  0  0  0  0  0  0  0  0  0  0  0
    5.3274   -1.4103   14.5153 H   0  0  0  0  0  0  0  0  0  0  0  0
    7.6706    0.5944   14.6642 H   0  0  0  0  0  0  0  0  0  0  0  0
   10.2978    0.0838   15.1834 H   0  0  0  0  0  0  0  0  0  0  0  0
   10.5200   -2.4311   15.2195 H   0  0  0  0  0  0  0  0  0  0  0  0
    8.7688   -4.4893   14.7702 H   0  0  0  0  0  0  0  0  0  0  0  0
  1  2  1  0
  2  3  1  0
  3  4  1  0
  4  5  1  0
  5  6  1  0
  6  7  1  0
  7  8  2  0
  7  9  1  0
  9 10  1  0
 10 11  1  0
 11 12  2  0
 12 13  1  0
 13 14  2  0
  3 15  1  0
 15 16  1  0
 16 17  2  0
 17 18  1  0
 18 19  2  0
 19 20  1  0
 20 21  2  0
 21 22  1  0
 22 23  1  0
 23 24  2  0
 14 10  1  0
 24 16  1  0
 23 19  1  0
  1 25  1  0
  1 26  1  0
  1 27  1  0
  2 28  1  0
  2 29  1  0
  4 30  1  0
  4 31  1  0
  5 32  1  0
  5 33  1  0
  6 34  1  0
  9 35  1  0
  9 36  1  0
 11 37  1  0
 12 38  1  0
 13 39  1  0
 15 40  1  0
 15 41  1  0
 17 42  1  0
 18 43  1  0
 20 44  1  0
 21 45  1  0
 22 46  1  0
 24 47  1  0
M  END
>  <Energy>  (398) 
1916.9728412801771

>  <compound_id>  (398) 
37110

>  <target_id>  (398) 
1

>  <reference_id>  (398) 
112

>  <inspiration_ids>  (398) 
[93, 112]

>  <energy_score>  (398) 
1831.691474854117

>  <distance_score>  (398) 
9.751775076404586

>  <path>  (398) 
/opt/xchem-fragalysis-2/maxwin/BulkDock/SCRATCH/511017/C37110-P112/C37110-P112.minimised.mol

>  <scratch_subdir>  (398) 
/opt/xchem-fragalysis-2/maxwin/BulkDock/SCRATCH/511017/C37110-P112

>  <fragmenstein_runtime>  (398) 
12.537649154663086

>  <fragmenstein_outcome>  (398) 
too moved

>  <fragmenstein_mode>  (398) 
expansion

>  <fragmenstein_error>  (398) 


$$$$
C37114-P93
     RDKit          3D

 51 54  0  0  0  0  0  0  0  0999 V2000
   -2.0397  -14.8343   15.6244 C   0  0  0  0  0  0  0  0  0  0  0  0
   -1.8572  -15.0470   16.9240 N   0  0  0  0  0  0  0  0  0  0  0  0
   -3.5609  -15.3834   16.7956 C   0  0  0  0  0  0  0  0  0  0  0  0
   -4.7657  -16.3864   16.1638 C   0  0  0  0  0  0  0  0  0  0  0  0
   -4.7141  -16.7217   14.6852 C   0  0  0  0  0  0  0  0  0  0  0  0
   -6.1178  -16.5654   13.6891 C   0  0  0  0  0  0  0  0  0  0  0  0
   -7.4478  -16.0593   14.3565 C   0  0  0  0  0  0  0  0  0  0  0  0
   -8.5786  -15.9572   13.5798 N   0  0  0  0  0  0  0  0  0  0  0  0
   -8.6099  -15.9314   12.2151 C   0  0  0  0  0  0  0  0  0  0  0  0
   -9.6200  -16.7923   11.8957 C   0  0  0  0  0  0  0  0  0  0  0  0
  -10.1984  -17.1083   13.1462 C   0  0  0  0  0  0  0  0  0  0  0  0
   -9.7472  -16.3274   14.1195 N   0  0  0  0  0  0  0  0  0  0  0  0
   -7.5218  -15.7811   15.8457 C   0  0  0  0  0  0  0  0  0  0  0  0
   -6.2806  -15.9454   16.7340 C   0  0  0  0  0  0  0  0  0  0  0  0
   -0.9164  -13.6632   17.6885 C   0  0  0  0  0  0  0  0  0  0  0  0
   -1.5088  -12.6910   18.1594 O   0  0  0  0  0  0  0  0  0  0  0  0
    1.2127  -13.9481   17.8512 C   0  0  0  0  0  0  0  0  0  0  0  0
    1.2683  -14.2715   16.5039 N   0  0  0  0  0  0  0  0  0  0  0  0
    3.2440  -13.5323   18.3060 C   0  0  0  0  0  0  0  0  0  0  0  0
    4.6717  -12.6840   19.4763 C   0  0  0  0  0  0  0  0  0  0  0  0
    5.9322  -12.0449   19.1909 C   0  0  0  0  0  0  0  0  0  0  0  0
    6.7156  -11.5121   20.1676 N   0  0  0  0  0  0  0  0  0  0  0  0
    6.1156  -11.6701   21.3441 C   0  0  0  0  0  0  0  0  0  0  0  0
    6.5496  -11.1206   22.5553 C   0  0  0  0  0  0  0  0  0  0  0  0
    5.8379  -11.4485   23.6837 C   0  0  0  0  0  0  0  0  0  0  0  0
    4.7889  -12.3416   23.5729 C   0  0  0  0  0  0  0  0  0  0  0  0
    4.3915  -12.8775   22.3283 C   0  0  0  0  0  0  0  0  0  0  0  0
    4.9940  -12.5041   21.1071 C   0  0  0  0  0  0  0  0  0  0  0  0
   -2.5029  -15.5973   15.0391 H   0  0  0  0  0  0  0  0  0  0  0  0
   -2.6926  -14.0421   15.8996 H   0  0  0  0  0  0  0  0  0  0  0  0
   -1.3394  -14.2742   15.0988 H   0  0  0  0  0  0  0  0  0  0  0  0
   -3.5917  -16.2573   17.5092 H   0  0  0  0  0  0  0  0  0  0  0  0
   -3.9205  -14.3801   16.9466 H   0  0  0  0  0  0  0  0  0  0  0  0
   -3.7216  -17.0299   14.4008 H   0  0  0  0  0  0  0  0  0  0  0  0
   -6.1829  -16.8616   12.6591 H   0  0  0  0  0  0  0  0  0  0  0  0
   -7.8251  -15.4791   11.6245 H   0  0  0  0  0  0  0  0  0  0  0  0
   -9.7974  -17.1727   10.9016 H   0  0  0  0  0  0  0  0  0  0  0  0
  -10.9065  -17.8640   13.4388 H   0  0  0  0  0  0  0  0  0  0  0  0
   -8.4565  -15.4513   16.2934 H   0  0  0  0  0  0  0  0  0  0  0  0
   -6.3804  -15.6282   17.7584 H   0  0  0  0  0  0  0  0  0  0  0  0
    1.5479  -14.9124   18.2070 H   0  0  0  0  0  0  0  0  0  0  0  0
    1.3847  -13.4019   15.9884 H   0  0  0  0  0  0  0  0  0  0  0  0
    2.1232  -14.7884   16.3439 H   0  0  0  0  0  0  0  0  0  0  0  0
    3.7839  -14.4507   18.0262 H   0  0  0  0  0  0  0  0  0  0  0  0
    3.3886  -12.5528   17.7999 H   0  0  0  0  0  0  0  0  0  0  0  0
    6.4357  -11.7430   18.3222 H   0  0  0  0  0  0  0  0  0  0  0  0
    7.5717  -10.9960   20.0096 H   0  0  0  0  0  0  0  0  0  0  0  0
    7.4185  -10.4725   22.6096 H   0  0  0  0  0  0  0  0  0  0  0  0
    6.1281  -11.0573   24.6542 H   0  0  0  0  0  0  0  0  0  0  0  0
    4.2598  -12.6568   24.4706 H   0  0  0  0  0  0  0  0  0  0  0  0
    3.5881  -13.5900   22.3604 H   0  0  0  0  0  0  0  0  0  0  0  0
  1  2  1  0
  2  3  1  0
  3  4  1  0
  4  5  2  0
  5  6  1  0
  6  7  2  0
  7  8  1  0
  8  9  1  0
  9 10  2  0
 10 11  1  0
 11 12  2  0
  7 13  1  0
 13 14  2  0
  2 15  1  0
 15 16  2  0
 15 17  1  0
 17 18  1  0
 17 19  1  0
 19 20  1  0
 20 21  2  0
 21 22  1  0
 22 23  1  0
 23 24  2  0
 24 25  1  0
 25 26  2  0
 26 27  1  0
 27 28  2  0
 14  4  1  0
 28 20  1  0
 12  8  1  0
 28 23  1  0
  1 29  1  0
  1 30  1  0
  1 31  1  0
  3 32  1  0
  3 33  1  0
  5 34  1  0
  6 35  1  0
  9 36  1  0
 10 37  1  0
 11 38  1  0
 13 39  1  0
 14 40  1  0
 17 41  1  0
 18 42  1  0
 18 43  1  0
 19 44  1  0
 19 45  1  0
 21 46  1  0
 22 47  1  0
 24 48  1  0
 25 49  1  0
 26 50  1  0
 27 51  1  0
M  END
>  <Energy>  (399) 
848.68310613744654

>  <compound_id>  (399) 
37114

>  <target_id>  (399) 
1

>  <reference_id>  (399) 
93

>  <inspiration_ids>  (399) 
[93, 112]

>  <energy_score>  (399) 
716.8080360652935

>  <distance_score>  (399) 
12.740874148053074

>  <path>  (399) 
/opt/xchem-fragalysis-2/maxwin/BulkDock/SCRATCH/511017/C37114-P93/C37114-P93.minimised.mol

>  <scratch_subdir>  (399) 
/opt/xchem-fragalysis-2/maxwin/BulkDock/SCRATCH/511017/C37114-P93

>  <fragmenstein_runtime>  (399) 
32.217562675476074

>  <fragmenstein_outcome>  (399) 
too moved

>  <fragmenstein_mode>  (399) 
expansion

>  <fragmenstein_error>  (399) 


$$$$
C37114-P112
     RDKit          3D

 51 54  0  0  0  0  0  0  0  0999 V2000
   -0.6508  -11.7966   12.8814 C   0  0  0  0  0  0  0  0  0  0  0  0
    0.4153  -12.5929   12.9124 N   0  0  0  0  0  0  0  0  0  0  0  0
   -0.9843  -13.9546   13.3811 C   0  0  0  0  0  0  0  0  0  0  0  0
   -2.7366  -14.6212   14.5295 C   0  0  0  0  0  0  0  0  0  0  0  0
   -3.2955  -16.1289   15.0027 C   0  0  0  0  0  0  0  0  0  0  0  0
   -4.5373  -16.7548   14.3875 C   0  0  0  0  0  0  0  0  0  0  0  0
   -5.8057  -16.3778   13.4393 C   0  0  0  0  0  0  0  0  0  0  0  0
   -6.8160  -17.3202   12.9862 N   0  0  0  0  0  0  0  0  0  0  0  0
   -7.8055  -17.0907   12.0491 C   0  0  0  0  0  0  0  0  0  0  0  0
   -8.2764  -18.3193   11.6450 C   0  0  0  0  0  0  0  0  0  0  0  0
   -7.6336  -19.2400   12.4752 C   0  0  0  0  0  0  0  0  0  0  0  0
   -6.7728  -18.6484   13.3003 N   0  0  0  0  0  0  0  0  0  0  0  0
   -5.5899  -15.1246   12.8264 C   0  0  0  0  0  0  0  0  0  0  0  0
   -4.0319  -14.4126   13.1347 C   0  0  0  0  0  0  0  0  0  0  0  0
    1.6802  -11.8752   13.8413 C   0  0  0  0  0  0  0  0  0  0  0  0
    1.6398  -12.1983   14.9652 O   0  0  0  0  0  0  0  0  0  0  0  0
    3.2885  -10.3309   13.5497 C   0  0  0  0  0  0  0  0  0  0  0  0
    2.9756  -10.2293   11.6628 N   0  0  0  0  0  0  0  0  0  0  0  0
    4.1728   -8.3584   13.8342 C   0  0  0  0  0  0  0  0  0  0  0  0
    5.7392   -7.0451   14.2706 C   0  0  0  0  0  0  0  0  0  0  0  0
    6.9541   -7.4114   14.4941 C   0  0  0  0  0  0  0  0  0  0  0  0
    8.0780   -6.5216   14.8068 N   0  0  0  0  0  0  0  0  0  0  0  0
    7.5642   -5.3633   15.5912 C   0  0  0  0  0  0  0  0  0  0  0  0
    8.4134   -3.7322   15.3242 C   0  0  0  0  0  0  0  0  0  0  0  0
    7.9122   -2.4397   14.9354 C   0  0  0  0  0  0  0  0  0  0  0  0
    6.5644   -2.4096   14.7892 C   0  0  0  0  0  0  0  0  0  0  0  0
    5.8423   -3.6788   15.3080 C   0  0  0  0  0  0  0  0  0  0  0  0
    6.2325   -5.6006   15.6609 C   0  0  0  0  0  0  0  0  0  0  0  0
   -0.9670  -11.9622   11.8628 H   0  0  0  0  0  0  0  0  0  0  0  0
   -0.1911  -10.9819   12.2822 H   0  0  0  0  0  0  0  0  0  0  0  0
   -1.0265  -11.1103   13.6126 H   0  0  0  0  0  0  0  0  0  0  0  0
   -1.2224  -13.1744   13.9682 H   0  0  0  0  0  0  0  0  0  0  0  0
   -0.9490  -14.3407   12.3264 H   0  0  0  0  0  0  0  0  0  0  0  0
   -3.5231  -16.2030   16.0966 H   0  0  0  0  0  0  0  0  0  0  0  0
   -4.3209  -17.7882   14.4633 H   0  0  0  0  0  0  0  0  0  0  0  0
   -8.0133  -16.0970   11.6835 H   0  0  0  0  0  0  0  0  0  0  0  0
   -8.9784  -18.5099   10.8473 H   0  0  0  0  0  0  0  0  0  0  0  0
   -7.7326  -20.3167   12.5025 H   0  0  0  0  0  0  0  0  0  0  0  0
   -6.3135  -14.6351   12.1869 H   0  0  0  0  0  0  0  0  0  0  0  0
   -4.1853  -13.4352   12.8071 H   0  0  0  0  0  0  0  0  0  0  0  0
    4.3161  -10.7377   13.7935 H   0  0  0  0  0  0  0  0  0  0  0  0
    2.8591   -9.2132   11.5809 H   0  0  0  0  0  0  0  0  0  0  0  0
    1.9897  -10.5094   11.6435 H   0  0  0  0  0  0  0  0  0  0  0  0
    4.0131   -7.8156   12.8740 H   0  0  0  0  0  0  0  0  0  0  0  0
    3.5181   -7.8053   14.5251 H   0  0  0  0  0  0  0  0  0  0  0  0
    7.2984   -8.2126   14.9429 H   0  0  0  0  0  0  0  0  0  0  0  0
    8.9541   -6.9485   15.0717 H   0  0  0  0  0  0  0  0  0  0  0  0
    9.5020   -3.8026   15.0960 H   0  0  0  0  0  0  0  0  0  0  0  0
    8.5648   -1.6137   14.6898 H   0  0  0  0  0  0  0  0  0  0  0  0
    6.0021   -1.5212   14.5274 H   0  0  0  0  0  0  0  0  0  0  0  0
    4.7379   -3.4370   15.5169 H   0  0  0  0  0  0  0  0  0  0  0  0
  1  2  1  0
  2  3  1  0
  3  4  1  0
  4  5  2  0
  5  6  1  0
  6  7  2  0
  7  8  1  0
  8  9  1  0
  9 10  2  0
 10 11  1  0
 11 12  2  0
  7 13  1  0
 13 14  2  0
  2 15  1  0
 15 16  2  0
 15 17  1  0
 17 18  1  0
 17 19  1  0
 19 20  1  0
 20 21  2  0
 21 22  1  0
 22 23  1  0
 23 24  2  0
 24 25  1  0
 25 26  2  0
 26 27  1  0
 27 28  2  0
 14  4  1  0
 28 20  1  0
 12  8  1  0
 28 23  1  0
  1 29  1  0
  1 30  1  0
  1 31  1  0
  3 32  1  0
  3 33  1  0
  5 34  1  0
  6 35  1  0
  9 36  1  0
 10 37  1  0
 11 38  1  0
 13 39  1  0
 14 40  1  0
 17 41  1  0
 18 42  1  0
 18 43  1  0
 19 44  1  0
 19 45  1  0
 21 46  1  0
 22 47  1  0
 24 48  1  0
 25 49  1  0
 26 50  1  0
 27 51  1  0
M  END
>  <Energy>  (400) 
1639.4547127574888

>  <compound_id>  (400) 
37114

>  <target_id>  (400) 
1

>  <reference_id>  (400) 
112

>  <inspiration_ids>  (400) 
[93, 112]

>  <energy_score>  (400) 
1507.5796426853835

>  <distance_score>  (400) 
10.22286977218239

>  <path>  (400) 
/opt/xchem-fragalysis-2/maxwin/BulkDock/SCRATCH/511017/C37114-P112/C37114-P112.minimised.mol

>  <scratch_subdir>  (400) 
/opt/xchem-fragalysis-2/maxwin/BulkDock/SCRATCH/511017/C37114-P112

>  <fragmenstein_runtime>  (400) 
20.408839464187622

>  <fragmenstein_outcome>  (400) 
too moved

>  <fragmenstein_mode>  (400) 
expansion

>  <fragmenstein_error>  (400) 


$$$$
C33647-P93
     RDKit          3D

 32 34  0  0  0  0  0  0  0  0999 V2000
    8.3130   -7.0316   14.6840 O   0  0  0  0  0  0  0  0  0  0  0  0
    9.2198   -7.7678   14.9412 C   0  0  0  0  0  0  0  0  0  0  0  0
    8.6315   -9.5172   14.7061 O   0  0  0  0  0  0  0  0  0  0  0  0
    6.9929  -10.4197   13.9547 C   0  0  0  0  0  0  0  0  0  0  0  0
    5.0192  -11.1273   14.5457 C   0  0  0  0  0  0  0  0  0  0  0  0
    3.6387  -11.8186   15.8532 N   0  0  0  0  0  0  0  0  0  0  0  0
    3.5300  -12.3295   17.6185 C   0  0  0  0  0  0  0  0  0  0  0  0
    2.6435  -13.8058   17.9915 C   0  0  0  0  0  0  0  0  0  0  0  0
    1.4794  -13.8835   16.6894 C   0  0  0  0  0  0  0  0  0  0  0  0
    1.9380  -12.6703   15.5489 N   0  0  0  0  0  0  0  0  0  0  0  0
   10.8363   -6.6436   15.4861 C   0  0  0  0  0  0  0  0  0  0  0  0
   12.1246   -6.7982   16.0521 C   0  0  0  0  0  0  0  0  0  0  0  0
   12.8738   -5.7256   16.4524 N   0  0  0  0  0  0  0  0  0  0  0  0
   12.3533   -4.5137   16.2667 C   0  0  0  0  0  0  0  0  0  0  0  0
   12.9645   -3.2666   16.4754 C   0  0  0  0  0  0  0  0  0  0  0  0
   12.3565   -2.1473   15.9362 C   0  0  0  0  0  0  0  0  0  0  0  0
   11.1616   -2.2968   15.2719 C   0  0  0  0  0  0  0  0  0  0  0  0
   10.5744   -3.5738   15.1390 C   0  0  0  0  0  0  0  0  0  0  0  0
   11.1634   -4.7952   15.6141 C   0  0  0  0  0  0  0  0  0  0  0  0
    6.9089   -9.5345   13.3443 H   0  0  0  0  0  0  0  0  0  0  0  0
    7.4704  -11.1548   13.2811 H   0  0  0  0  0  0  0  0  0  0  0  0
    4.2765  -10.5679   13.9768 H   0  0  0  0  0  0  0  0  0  0  0  0
    5.0693  -12.1200   14.0882 H   0  0  0  0  0  0  0  0  0  0  0  0
    4.3806  -12.1333   18.1890 H   0  0  0  0  0  0  0  0  0  0  0  0
    2.7171  -14.5541   18.7529 H   0  0  0  0  0  0  0  0  0  0  0  0
    0.4646  -13.9512   16.9358 H   0  0  0  0  0  0  0  0  0  0  0  0
   12.5982   -7.7369   15.9836 H   0  0  0  0  0  0  0  0  0  0  0  0
   13.8524   -5.8210   16.6166 H   0  0  0  0  0  0  0  0  0  0  0  0
   13.9275   -3.1884   16.9700 H   0  0  0  0  0  0  0  0  0  0  0  0
   12.8169   -1.1693   16.0327 H   0  0  0  0  0  0  0  0  0  0  0  0
   10.6451   -1.4313   14.8625 H   0  0  0  0  0  0  0  0  0  0  0  0
    9.5605   -3.5488   14.7875 H   0  0  0  0  0  0  0  0  0  0  0  0
  1  2  2  0
  2  3  1  0
  3  4  1  0
  4  5  1  0
  5  6  1  0
  6  7  1  0
  7  8  2  0
  8  9  1  0
  9 10  2  0
  2 11  1  0
 11 12  2  0
 12 13  1  0
 13 14  1  0
 14 15  2  0
 15 16  1  0
 16 17  2  0
 17 18  1  0
 18 19  2  0
 10  6  1  0
 19 11  1  0
 19 14  1  0
  4 20  1  0
  4 21  1  0
  5 22  1  0
  5 23  1  0
  7 24  1  0
  8 25  1  0
  9 26  1  0
 12 27  1  0
 13 28  1  0
 15 29  1  0
 16 30  1  0
 17 31  1  0
 18 32  1  0
M  END
>  <Energy>  (401) 
1032.7102432641675

>  <compound_id>  (401) 
33647

>  <target_id>  (401) 
1

>  <reference_id>  (401) 
93

>  <inspiration_ids>  (401) 
[93, 112]

>  <energy_score>  (401) 
974.7519357328448

>  <distance_score>  (401) 
11.936359619946385

>  <path>  (401) 
/opt/xchem-fragalysis-2/maxwin/BulkDock/SCRATCH/511017/C33647-P93/C33647-P93.minimised.mol

>  <scratch_subdir>  (401) 
/opt/xchem-fragalysis-2/maxwin/BulkDock/SCRATCH/511017/C33647-P93

>  <fragmenstein_runtime>  (401) 
11.948796033859253

>  <fragmenstein_outcome>  (401) 
too moved

>  <fragmenstein_mode>  (401) 
expansion

>  <fragmenstein_error>  (401) 


$$$$
C33647-P112
     RDKit          3D

 32 34  0  0  0  0  0  0  0  0999 V2000
    5.0257   -3.9318   19.7214 O   0  0  0  0  0  0  0  0  0  0  0  0
    5.7828   -4.7836   19.2470 C   0  0  0  0  0  0  0  0  0  0  0  0
    5.5745   -6.0967   19.5102 O   0  0  0  0  0  0  0  0  0  0  0  0
    4.6620   -6.1765   20.6364 C   0  0  0  0  0  0  0  0  0  0  0  0
    4.2455   -7.5971   20.8026 C   0  0  0  0  0  0  0  0  0  0  0  0
    2.8202   -7.7672   21.0369 N   0  0  0  0  0  0  0  0  0  0  0  0
    1.8713   -7.9756   20.0931 C   0  0  0  0  0  0  0  0  0  0  0  0
    0.6983   -7.5832   20.6892 C   0  0  0  0  0  0  0  0  0  0  0  0
    1.0144   -7.4944   22.0520 C   0  0  0  0  0  0  0  0  0  0  0  0
    2.3075   -7.7400   22.2782 N   0  0  0  0  0  0  0  0  0  0  0  0
    7.0824   -4.4458   18.4218 C   0  0  0  0  0  0  0  0  0  0  0  0
    8.5493   -4.0096   19.6840 C   0  0  0  0  0  0  0  0  0  0  0  0
   10.1078   -4.9915   18.8177 N   0  0  0  0  0  0  0  0  0  0  0  0
   10.1426   -4.2239   17.0651 C   0  0  0  0  0  0  0  0  0  0  0  0
   11.1860   -3.5655   16.3358 C   0  0  0  0  0  0  0  0  0  0  0  0
   10.8077   -2.6206   15.3534 C   0  0  0  0  0  0  0  0  0  0  0  0
    9.4622   -2.2651   14.9902 C   0  0  0  0  0  0  0  0  0  0  0  0
    8.2227   -2.9216   15.3714 C   0  0  0  0  0  0  0  0  0  0  0  0
    8.1752   -4.1486   16.5236 C   0  0  0  0  0  0  0  0  0  0  0  0
    3.7720   -5.5526   20.4881 H   0  0  0  0  0  0  0  0  0  0  0  0
    5.1852   -5.8335   21.5383 H   0  0  0  0  0  0  0  0  0  0  0  0
    4.4962   -8.1079   19.8666 H   0  0  0  0  0  0  0  0  0  0  0  0
    4.7877   -8.0621   21.6341 H   0  0  0  0  0  0  0  0  0  0  0  0
    2.1206   -8.2355   19.0727 H   0  0  0  0  0  0  0  0  0  0  0  0
   -0.2618   -7.4583   20.2084 H   0  0  0  0  0  0  0  0  0  0  0  0
    0.3674   -7.2679   22.8892 H   0  0  0  0  0  0  0  0  0  0  0  0
    8.7699   -3.8343   20.8076 H   0  0  0  0  0  0  0  0  0  0  0  0
    9.6728   -5.8434   18.9494 H   0  0  0  0  0  0  0  0  0  0  0  0
   12.2188   -3.6691   16.6542 H   0  0  0  0  0  0  0  0  0  0  0  0
   11.6077   -2.0301   14.9000 H   0  0  0  0  0  0  0  0  0  0  0  0
    9.3552   -1.3423   14.4271 H   0  0  0  0  0  0  0  0  0  0  0  0
    7.2893   -2.4463   15.0668 H   0  0  0  0  0  0  0  0  0  0  0  0
  1  2  2  0
  2  3  1  0
  3  4  1  0
  4  5  1  0
  5  6  1  0
  6  7  1  0
  7  8  2  0
  8  9  1  0
  9 10  2  0
  2 11  1  0
 11 12  2  0
 12 13  1  0
 13 14  1  0
 14 15  2  0
 15 16  1  0
 16 17  2  0
 17 18  1  0
 18 19  2  0
 10  6  1  0
 19 11  1  0
 19 14  1  0
  4 20  1  0
  4 21  1  0
  5 22  1  0
  5 23  1  0
  7 24  1  0
  8 25  1  0
  9 26  1  0
 12 27  1  0
 13 28  1  0
 15 29  1  0
 16 30  1  0
 17 31  1  0
 18 32  1  0
M  END
>  <Energy>  (402) 
788.58881356576308

>  <compound_id>  (402) 
33647

>  <target_id>  (402) 
1

>  <reference_id>  (402) 
112

>  <inspiration_ids>  (402) 
[93, 112]

>  <energy_score>  (402) 
730.6305060344373

>  <distance_score>  (402) 
15.02552828716713

>  <path>  (402) 
/opt/xchem-fragalysis-2/maxwin/BulkDock/SCRATCH/511017/C33647-P112/C33647-P112.minimised.mol

>  <scratch_subdir>  (402) 
/opt/xchem-fragalysis-2/maxwin/BulkDock/SCRATCH/511017/C33647-P112

>  <fragmenstein_runtime>  (402) 
12.56505036354065

>  <fragmenstein_outcome>  (402) 
too moved

>  <fragmenstein_mode>  (402) 
expansion

>  <fragmenstein_error>  (402) 


$$$$
C37117-P93
     RDKit          3D

 34 36  0  0  0  0  0  0  0  0999 V2000
    6.4349   -9.0312   25.5860 O   0  0  0  0  0  0  0  0  0  0  0  0
    6.4542   -9.6136   24.5094 C   0  0  0  0  0  0  0  0  0  0  0  0
    5.4229  -10.4673   24.1038 O   0  0  0  0  0  0  0  0  0  0  0  0
    4.3309  -10.9162   25.0379 C   0  0  0  0  0  0  0  0  0  0  0  0
    3.0547  -11.3839   24.2429 C   0  0  0  0  0  0  0  0  0  0  0  0
    2.0587  -12.3596   24.7457 N   0  0  0  0  0  0  0  0  0  0  0  0
    0.6918  -12.1351   24.8633 C   0  0  0  0  0  0  0  0  0  0  0  0
    0.0666  -13.3623   24.9601 C   0  0  0  0  0  0  0  0  0  0  0  0
    1.1134  -14.2911   24.8748 C   0  0  0  0  0  0  0  0  0  0  0  0
    2.3029  -13.6988   24.6913 N   0  0  0  0  0  0  0  0  0  0  0  0
    7.6366   -9.5554   23.5668 C   0  0  0  0  0  0  0  0  0  0  0  0
    7.9178  -10.5869   22.6793 C   0  0  0  0  0  0  0  0  0  0  0  0
    9.0986  -10.3666   22.0376 N   0  0  0  0  0  0  0  0  0  0  0  0
    9.7139   -9.2643   22.5604 C   0  0  0  0  0  0  0  0  0  0  0  0
   11.0240   -8.8202   22.3165 C   0  0  0  0  0  0  0  0  0  0  0  0
   11.4565   -7.6492   22.9143 C   0  0  0  0  0  0  0  0  0  0  0  0
   10.5653   -6.9101   23.6698 C   0  0  0  0  0  0  0  0  0  0  0  0
    9.2190   -7.3332   23.8405 C   0  0  0  0  0  0  0  0  0  0  0  0
    8.2487   -6.3137   24.2475 N   0  0  0  0  0  0  0  0  0  0  0  0
    8.6958   -5.2010   24.5872 O   0  0  0  0  0  0  0  0  0  0  0  0
    7.0443   -6.5789   24.1524 O   0  0  0  0  0  0  0  0  0  0  0  0
    8.7804   -8.6161   23.3964 C   0  0  0  0  0  0  0  0  0  0  0  0
    4.0767  -10.0900   25.7089 H   0  0  0  0  0  0  0  0  0  0  0  0
    4.7399  -11.7464   25.6208 H   0  0  0  0  0  0  0  0  0  0  0  0
    2.4864  -10.4833   23.9773 H   0  0  0  0  0  0  0  0  0  0  0  0
    3.3850  -11.8076   23.2949 H   0  0  0  0  0  0  0  0  0  0  0  0
    0.2966  -11.1280   24.8600 H   0  0  0  0  0  0  0  0  0  0  0  0
   -0.9909  -13.5516   25.0801 H   0  0  0  0  0  0  0  0  0  0  0  0
    1.0632  -15.3720   24.9115 H   0  0  0  0  0  0  0  0  0  0  0  0
    7.3748  -11.4915   22.4608 H   0  0  0  0  0  0  0  0  0  0  0  0
    9.5088  -10.9826   21.3479 H   0  0  0  0  0  0  0  0  0  0  0  0
   11.7059   -9.4149   21.7184 H   0  0  0  0  0  0  0  0  0  0  0  0
   12.4776   -7.3040   22.7725 H   0  0  0  0  0  0  0  0  0  0  0  0
   10.9155   -5.9700   24.0931 H   0  0  0  0  0  0  0  0  0  0  0  0
  1  2  2  0
  2  3  1  0
  3  4  1  0
  4  5  1  0
  5  6  1  0
  6  7  1  0
  7  8  2  0
  8  9  1  0
  9 10  2  0
  2 11  1  0
 11 12  2  0
 12 13  1  0
 13 14  1  0
 14 15  2  0
 15 16  1  0
 16 17  2  0
 17 18  1  0
 18 19  1  0
 19 20  2  0
 19 21  1  0
 18 22  2  0
 10  6  1  0
 22 11  1  0
 22 14  1  0
  4 23  1  0
  4 24  1  0
  5 25  1  0
  5 26  1  0
  7 27  1  0
  8 28  1  0
  9 29  1  0
 12 30  1  0
 13 31  1  0
 15 32  1  0
 16 33  1  0
 17 34  1  0
M  CHG  2  19   1  21  -1
M  END
>  <Energy>  (403) 
90.981622957415155

>  <compound_id>  (403) 
37117

>  <target_id>  (403) 
1

>  <reference_id>  (403) 
93

>  <inspiration_ids>  (403) 
[93, 112]

>  <energy_score>  (403) 
-37.92401055202777

>  <distance_score>  (403) 
15.15897653693973

>  <path>  (403) 
/opt/xchem-fragalysis-2/maxwin/BulkDock/SCRATCH/511017/C37117-P93/C37117-P93.minimised.mol

>  <scratch_subdir>  (403) 
/opt/xchem-fragalysis-2/maxwin/BulkDock/SCRATCH/511017/C37117-P93

>  <fragmenstein_runtime>  (403) 
11.75418996810913

>  <fragmenstein_outcome>  (403) 
too moved

>  <fragmenstein_mode>  (403) 
expansion

>  <fragmenstein_error>  (403) 


$$$$
C37117-P112
     RDKit          3D

 34 36  0  0  0  0  0  0  0  0999 V2000
    7.6381  -13.6537   21.1592 O   0  0  0  0  0  0  0  0  0  0  0  0
    7.1180  -12.5600   20.9077 C   0  0  0  0  0  0  0  0  0  0  0  0
    5.9588  -12.4521   20.0413 O   0  0  0  0  0  0  0  0  0  0  0  0
    4.8400  -13.5519   19.6186 C   0  0  0  0  0  0  0  0  0  0  0  0
    3.8129  -14.5160   18.3678 C   0  0  0  0  0  0  0  0  0  0  0  0
    3.6532  -15.8105   17.5929 N   0  0  0  0  0  0  0  0  0  0  0  0
    4.2133  -16.3695   16.4458 C   0  0  0  0  0  0  0  0  0  0  0  0
    3.7163  -17.6137   16.1778 C   0  0  0  0  0  0  0  0  0  0  0  0
    2.7958  -17.7369   17.1733 C   0  0  0  0  0  0  0  0  0  0  0  0
    2.4853  -16.5415   17.7325 N   0  0  0  0  0  0  0  0  0  0  0  0
    7.7455  -11.3146   21.5714 C   0  0  0  0  0  0  0  0  0  0  0  0
    7.4032  -11.1242   22.9181 C   0  0  0  0  0  0  0  0  0  0  0  0
    8.4103  -11.8199   23.5930 N   0  0  0  0  0  0  0  0  0  0  0  0
    9.5828  -11.6770   22.8872 C   0  0  0  0  0  0  0  0  0  0  0  0
   10.9087  -11.8338   23.3185 C   0  0  0  0  0  0  0  0  0  0  0  0
   11.8686  -10.9938   22.7615 C   0  0  0  0  0  0  0  0  0  0  0  0
   11.4509   -9.9719   21.9370 C   0  0  0  0  0  0  0  0  0  0  0  0
   10.1165   -9.9611   21.4756 C   0  0  0  0  0  0  0  0  0  0  0  0
    9.5686   -8.6924   21.1175 N   0  0  0  0  0  0  0  0  0  0  0  0
    8.9612   -8.6617   20.0582 O   0  0  0  0  0  0  0  0  0  0  0  0
    9.7813   -7.7563   21.9043 O   0  0  0  0  0  0  0  0  0  0  0  0
    9.1953  -11.0136   21.7175 C   0  0  0  0  0  0  0  0  0  0  0  0
    4.1842  -13.5011   20.4825 H   0  0  0  0  0  0  0  0  0  0  0  0
    4.4212  -12.7315   19.0697 H   0  0  0  0  0  0  0  0  0  0  0  0
    3.2935  -13.7664   17.8236 H   0  0  0  0  0  0  0  0  0  0  0  0
    2.9846  -14.7435   19.0633 H   0  0  0  0  0  0  0  0  0  0  0  0
    4.9731  -15.9352   15.8501 H   0  0  0  0  0  0  0  0  0  0  0  0
    4.0387  -18.3204   15.4276 H   0  0  0  0  0  0  0  0  0  0  0  0
    2.2712  -18.6438   17.4529 H   0  0  0  0  0  0  0  0  0  0  0  0
    6.4473  -11.0680   23.4186 H   0  0  0  0  0  0  0  0  0  0  0  0
    8.3556  -12.1212   24.5571 H   0  0  0  0  0  0  0  0  0  0  0  0
   11.1556  -12.4456   24.1822 H   0  0  0  0  0  0  0  0  0  0  0  0
   12.8893  -11.0153   23.1369 H   0  0  0  0  0  0  0  0  0  0  0  0
   12.1243   -9.1343   21.7776 H   0  0  0  0  0  0  0  0  0  0  0  0
  1  2  2  0
  2  3  1  0
  3  4  1  0
  4  5  1  0
  5  6  1  0
  6  7  1  0
  7  8  2  0
  8  9  1  0
  9 10  2  0
  2 11  1  0
 11 12  2  0
 12 13  1  0
 13 14  1  0
 14 15  2  0
 15 16  1  0
 16 17  2  0
 17 18  1  0
 18 19  1  0
 19 20  2  0
 19 21  1  0
 18 22  2  0
 10  6  1  0
 22 11  1  0
 22 14  1  0
  4 23  1  0
  4 24  1  0
  5 25  1  0
  5 26  1  0
  7 27  1  0
  8 28  1  0
  9 29  1  0
 12 30  1  0
 13 31  1  0
 15 32  1  0
 16 33  1  0
 17 34  1  0
M  CHG  2  19   1  21  -1
M  END
>  <Energy>  (404) 
318.59115506481885

>  <compound_id>  (404) 
37117

>  <target_id>  (404) 
1

>  <reference_id>  (404) 
112

>  <inspiration_ids>  (404) 
[93, 112]

>  <energy_score>  (404) 
189.68552155537776

>  <distance_score>  (404) 
13.895825772930952

>  <path>  (404) 
/opt/xchem-fragalysis-2/maxwin/BulkDock/SCRATCH/511017/C37117-P112/C37117-P112.minimised.mol

>  <scratch_subdir>  (404) 
/opt/xchem-fragalysis-2/maxwin/BulkDock/SCRATCH/511017/C37117-P112

>  <fragmenstein_runtime>  (404) 
9.337699890136719

>  <fragmenstein_outcome>  (404) 
too moved

>  <fragmenstein_mode>  (404) 
expansion

>  <fragmenstein_error>  (404) 


$$$$
C37118-P93
     RDKit          3D

 35 37  0  0  0  0  0  0  0  0999 V2000
   10.8585  -10.7989   15.8024 C   0  0  0  0  0  0  0  0  0  0  0  0
    9.7780   -9.9903   15.2520 N   0  0  0  0  0  0  0  0  0  0  0  0
    8.6371  -10.7243   14.4848 C   0  0  0  0  0  0  0  0  0  0  0  0
    7.1255  -10.3060   13.9725 C   0  0  0  0  0  0  0  0  0  0  0  0
    5.0820  -10.8001   14.1947 C   0  0  0  0  0  0  0  0  0  0  0  0
    4.4130   -9.9254   13.7002 O   0  0  0  0  0  0  0  0  0  0  0  0
    3.8813  -12.0379   15.0115 O   0  0  0  0  0  0  0  0  0  0  0  0
    1.8633  -12.7641   14.9119 C   0  0  0  0  0  0  0  0  0  0  0  0
    0.1653  -13.6439   13.9094 C   0  0  0  0  0  0  0  0  0  0  0  0
   -1.2939  -14.2239   15.1920 N   0  0  0  0  0  0  0  0  0  0  0  0
   -1.3584  -13.9294   16.6955 C   0  0  0  0  0  0  0  0  0  0  0  0
   -2.6261  -13.8732   16.9465 C   0  0  0  0  0  0  0  0  0  0  0  0
   -2.9802  -15.0174   16.3154 C   0  0  0  0  0  0  0  0  0  0  0  0
   -2.3309  -15.1563   15.1715 N   0  0  0  0  0  0  0  0  0  0  0  0
    8.3380   -8.8265   14.5349 C   0  0  0  0  0  0  0  0  0  0  0  0
    8.9492   -7.3756   14.7272 C   0  0  0  0  0  0  0  0  0  0  0  0
   10.6379   -6.2981   15.0076 C   0  0  0  0  0  0  0  0  0  0  0  0
   11.4261   -5.8124   15.9549 C   0  0  0  0  0  0  0  0  0  0  0  0
   10.9143   -6.9447   15.7293 C   0  0  0  0  0  0  0  0  0  0  0  0
    9.7455   -8.5501   15.2927 C   0  0  0  0  0  0  0  0  0  0  0  0
   11.7485  -10.1876   15.9014 H   0  0  0  0  0  0  0  0  0  0  0  0
   10.5308  -11.1840   16.7699 H   0  0  0  0  0  0  0  0  0  0  0  0
   11.0776  -11.6188   15.1133 H   0  0  0  0  0  0  0  0  0  0  0  0
    8.9426  -11.6873   14.8008 H   0  0  0  0  0  0  0  0  0  0  0  0
    1.4524  -12.0048   14.2244 H   0  0  0  0  0  0  0  0  0  0  0  0
    1.6291  -12.7319   15.9067 H   0  0  0  0  0  0  0  0  0  0  0  0
    0.2355  -14.5184   13.2564 H   0  0  0  0  0  0  0  0  0  0  0  0
   -0.3994  -12.8300   13.4478 H   0  0  0  0  0  0  0  0  0  0  0  0
   -0.5552  -13.4692   17.2673 H   0  0  0  0  0  0  0  0  0  0  0  0
   -2.7957  -13.1494   17.7154 H   0  0  0  0  0  0  0  0  0  0  0  0
   -3.7378  -15.7696   16.5180 H   0  0  0  0  0  0  0  0  0  0  0  0
    8.3274   -7.1195   13.9047 H   0  0  0  0  0  0  0  0  0  0  0  0
   10.4818   -5.1692   14.4464 H   0  0  0  0  0  0  0  0  0  0  0  0
   12.3657   -5.3561   16.1140 H   0  0  0  0  0  0  0  0  0  0  0  0
   12.0831   -7.4770   16.0095 H   0  0  0  0  0  0  0  0  0  0  0  0
  1  2  1  0
  2  3  1  0
  3  4  2  0
  4  5  1  0
  5  6  2  0
  5  7  1  0
  7  8  1  0
  8  9  1  0
  9 10  1  0
 10 11  1  0
 11 12  2  0
 12 13  1  0
 13 14  2  0
  4 15  1  0
 15 16  2  0
 16 17  1  0
 17 18  2  0
 18 19  1  0
 19 20  2  0
 20  2  1  0
 14 10  1  0
 20 15  1  0
  1 21  1  0
  1 22  1  0
  1 23  1  0
  3 24  1  0
  8 25  1  0
  8 26  1  0
  9 27  1  0
  9 28  1  0
 11 29  1  0
 12 30  1  0
 13 31  1  0
 16 32  1  0
 17 33  1  0
 18 34  1  0
 19 35  1  0
M  END
>  <Energy>  (405) 
1681.3881012923264

>  <compound_id>  (405) 
37118

>  <target_id>  (405) 
1

>  <reference_id>  (405) 
93

>  <inspiration_ids>  (405) 
[93, 112]

>  <energy_score>  (405) 
1627.8236508634802

>  <distance_score>  (405) 
10.948175151068098

>  <path>  (405) 
/opt/xchem-fragalysis-2/maxwin/BulkDock/SCRATCH/511017/C37118-P93/C37118-P93.minimised.mol

>  <scratch_subdir>  (405) 
/opt/xchem-fragalysis-2/maxwin/BulkDock/SCRATCH/511017/C37118-P93

>  <fragmenstein_runtime>  (405) 
16.103593587875366

>  <fragmenstein_outcome>  (405) 
too moved

>  <fragmenstein_mode>  (405) 
expansion

>  <fragmenstein_error>  (405) 


$$$$
C37118-P112
     RDKit          3D

 35 37  0  0  0  0  0  0  0  0999 V2000
   12.0945  -11.7819   15.4394 C   0  0  0  0  0  0  0  0  0  0  0  0
   11.0239  -10.8881   15.8089 N   0  0  0  0  0  0  0  0  0  0  0  0
    9.8731  -11.3013   16.4464 C   0  0  0  0  0  0  0  0  0  0  0  0
    9.0435  -10.2123   16.7762 C   0  0  0  0  0  0  0  0  0  0  0  0
    8.2969  -10.1865   18.3617 C   0  0  0  0  0  0  0  0  0  0  0  0
    9.0003  -10.0219   19.3642 O   0  0  0  0  0  0  0  0  0  0  0  0
    6.8019  -10.4793   18.6633 O   0  0  0  0  0  0  0  0  0  0  0  0
    6.1935  -11.6572   19.7205 C   0  0  0  0  0  0  0  0  0  0  0  0
    5.0772  -13.1996   19.5322 C   0  0  0  0  0  0  0  0  0  0  0  0
    4.1799  -14.1763   18.4998 N   0  0  0  0  0  0  0  0  0  0  0  0
    4.1784  -15.5483   18.0573 C   0  0  0  0  0  0  0  0  0  0  0  0
    3.0509  -15.9775   17.4285 C   0  0  0  0  0  0  0  0  0  0  0  0
    2.3148  -14.8664   17.6096 C   0  0  0  0  0  0  0  0  0  0  0  0
    3.0052  -13.8356   18.0408 N   0  0  0  0  0  0  0  0  0  0  0  0
    9.7763   -9.0803   15.7202 C   0  0  0  0  0  0  0  0  0  0  0  0
    9.7866   -7.3430   15.3910 C   0  0  0  0  0  0  0  0  0  0  0  0
   11.1047   -6.1237   15.8548 C   0  0  0  0  0  0  0  0  0  0  0  0
   12.3084   -6.7876   16.0731 C   0  0  0  0  0  0  0  0  0  0  0  0
   12.1779   -8.5149   15.9052 C   0  0  0  0  0  0  0  0  0  0  0  0
   11.0965   -9.5391   15.8839 C   0  0  0  0  0  0  0  0  0  0  0  0
   12.7089  -11.9701   16.3231 H   0  0  0  0  0  0  0  0  0  0  0  0
   11.6640  -12.7161   15.0690 H   0  0  0  0  0  0  0  0  0  0  0  0
   12.6884  -11.3213   14.6464 H   0  0  0  0  0  0  0  0  0  0  0  0
    9.8441  -12.3378   16.7058 H   0  0  0  0  0  0  0  0  0  0  0  0
    5.7568  -11.0428   20.5109 H   0  0  0  0  0  0  0  0  0  0  0  0
    7.0761  -11.9613   20.3002 H   0  0  0  0  0  0  0  0  0  0  0  0
    4.3365  -13.0767   20.3269 H   0  0  0  0  0  0  0  0  0  0  0  0
    5.7394  -13.9291   20.0060 H   0  0  0  0  0  0  0  0  0  0  0  0
    4.9437  -16.1739   18.3985 H   0  0  0  0  0  0  0  0  0  0  0  0
    2.8350  -16.9567   17.0385 H   0  0  0  0  0  0  0  0  0  0  0  0
    1.3234  -14.5506   17.4004 H   0  0  0  0  0  0  0  0  0  0  0  0
    8.8454   -6.9645   14.9975 H   0  0  0  0  0  0  0  0  0  0  0  0
   11.1210   -5.0853   15.5166 H   0  0  0  0  0  0  0  0  0  0  0  0
   13.1946   -6.2443   15.7525 H   0  0  0  0  0  0  0  0  0  0  0  0
   12.9894   -8.9426   15.3775 H   0  0  0  0  0  0  0  0  0  0  0  0
  1  2  1  0
  2  3  1  0
  3  4  2  0
  4  5  1  0
  5  6  2  0
  5  7  1  0
  7  8  1  0
  8  9  1  0
  9 10  1  0
 10 11  1  0
 11 12  2  0
 12 13  1  0
 13 14  2  0
  4 15  1  0
 15 16  2  0
 16 17  1  0
 17 18  2  0
 18 19  1  0
 19 20  2  0
 20  2  1  0
 14 10  1  0
 20 15  1  0
  1 21  1  0
  1 22  1  0
  1 23  1  0
  3 24  1  0
  8 25  1  0
  8 26  1  0
  9 27  1  0
  9 28  1  0
 11 29  1  0
 12 30  1  0
 13 31  1  0
 16 32  1  0
 17 33  1  0
 18 34  1  0
 19 35  1  0
M  END
>  <Energy>  (406) 
467.66972677074267

>  <compound_id>  (406) 
37118

>  <target_id>  (406) 
1

>  <reference_id>  (406) 
112

>  <inspiration_ids>  (406) 
[93, 112]

>  <energy_score>  (406) 
414.105276341872

>  <distance_score>  (406) 
12.830496069254309

>  <path>  (406) 
/opt/xchem-fragalysis-2/maxwin/BulkDock/SCRATCH/511017/C37118-P112/C37118-P112.minimised.mol

>  <scratch_subdir>  (406) 
/opt/xchem-fragalysis-2/maxwin/BulkDock/SCRATCH/511017/C37118-P112

>  <fragmenstein_runtime>  (406) 
18.391069412231445

>  <fragmenstein_outcome>  (406) 
too moved

>  <fragmenstein_mode>  (406) 
expansion

>  <fragmenstein_error>  (406) 


$$$$
C37119-P93
     RDKit          3D

 32 34  0  0  0  0  0  0  0  0999 V2000
    3.4600  -10.6938   13.6015 O   0  0  0  0  0  0  0  0  0  0  0  0
    4.2429  -10.9373   14.4617 C   0  0  0  0  0  0  0  0  0  0  0  0
    3.4200  -11.8021   15.8027 O   0  0  0  0  0  0  0  0  0  0  0  0
    1.6213  -12.7106   15.8579 C   0  0  0  0  0  0  0  0  0  0  0  0
    0.0755  -13.2626   17.2786 C   0  0  0  0  0  0  0  0  0  0  0  0
   -1.3119  -12.3050   18.1170 N   0  0  0  0  0  0  0  0  0  0  0  0
   -2.1007  -12.4459   19.3379 C   0  0  0  0  0  0  0  0  0  0  0  0
   -2.9276  -11.3794   19.5809 C   0  0  0  0  0  0  0  0  0  0  0  0
   -2.7491  -10.6091   18.4750 C   0  0  0  0  0  0  0  0  0  0  0  0
   -1.8288  -11.1041   17.6727 N   0  0  0  0  0  0  0  0  0  0  0  0
    5.7071  -10.2429   14.0850 C   0  0  0  0  0  0  0  0  0  0  0  0
    6.8435  -10.1043   13.2560 C   0  0  0  0  0  0  0  0  0  0  0  0
    6.7499   -8.2731   12.9630 N   0  0  0  0  0  0  0  0  0  0  0  0
    5.5940   -7.4271   14.0111 C   0  0  0  0  0  0  0  0  0  0  0  0
    5.4419   -6.4954   15.7611 C   0  0  0  0  0  0  0  0  0  0  0  0
    5.7123   -6.1081   16.9587 C   0  0  0  0  0  0  0  0  0  0  0  0
    6.2726   -5.9233   18.1410 F   0  0  0  0  0  0  0  0  0  0  0  0
    6.7482   -6.3296   16.1977 C   0  0  0  0  0  0  0  0  0  0  0  0
    7.1305   -7.4628   15.0642 C   0  0  0  0  0  0  0  0  0  0  0  0
    6.3857   -8.4231   14.0854 C   0  0  0  0  0  0  0  0  0  0  0  0
    1.6312  -13.8158   16.0671 H   0  0  0  0  0  0  0  0  0  0  0  0
    1.4158  -12.6174   14.7613 H   0  0  0  0  0  0  0  0  0  0  0  0
   -0.8172  -13.8156   16.8859 H   0  0  0  0  0  0  0  0  0  0  0  0
    0.6030  -13.7546   18.0401 H   0  0  0  0  0  0  0  0  0  0  0  0
   -2.1063  -13.3052   19.9924 H   0  0  0  0  0  0  0  0  0  0  0  0
   -3.5983  -11.2426   20.4148 H   0  0  0  0  0  0  0  0  0  0  0  0
   -3.2198   -9.6732   18.2064 H   0  0  0  0  0  0  0  0  0  0  0  0
    7.4826  -10.5742   12.5152 H   0  0  0  0  0  0  0  0  0  0  0  0
    7.1759   -7.9289   12.1028 H   0  0  0  0  0  0  0  0  0  0  0  0
    4.2320   -6.3522   15.7940 H   0  0  0  0  0  0  0  0  0  0  0  0
    7.4520   -5.5414   16.1432 H   0  0  0  0  0  0  0  0  0  0  0  0
    8.1789   -7.1139   14.8856 H   0  0  0  0  0  0  0  0  0  0  0  0
  1  2  2  0
  2  3  1  0
  3  4  1  0
  4  5  1  0
  5  6  1  0
  6  7  1  0
  7  8  2  0
  8  9  1  0
  9 10  2  0
  2 11  1  0
 11 12  2  0
 12 13  1  0
 13 14  1  0
 14 15  2  0
 15 16  1  0
 16 17  1  0
 16 18  2  0
 18 19  1  0
 19 20  2  0
 10  6  1  0
 20 11  1  0
 20 14  1  0
  4 21  1  0
  4 22  1  0
  5 23  1  0
  5 24  1  0
  7 25  1  0
  8 26  1  0
  9 27  1  0
 12 28  1  0
 13 29  1  0
 15 30  1  0
 18 31  1  0
 19 32  1  0
M  END
>  <Energy>  (407) 
1258.8884080098549

>  <compound_id>  (407) 
37119

>  <target_id>  (407) 
1

>  <reference_id>  (407) 
93

>  <inspiration_ids>  (407) 
[93, 112]

>  <energy_score>  (407) 
1206.9971948225561

>  <distance_score>  (407) 
13.284753605364887

>  <path>  (407) 
/opt/xchem-fragalysis-2/maxwin/BulkDock/SCRATCH/511017/C37119-P93/C37119-P93.minimised.mol

>  <scratch_subdir>  (407) 
/opt/xchem-fragalysis-2/maxwin/BulkDock/SCRATCH/511017/C37119-P93

>  <fragmenstein_runtime>  (407) 
9.56839370727539

>  <fragmenstein_outcome>  (407) 
too moved

>  <fragmenstein_mode>  (407) 
expansion

>  <fragmenstein_error>  (407) 


$$$$
C37119-P112
     RDKit          3D

 32 34  0  0  0  0  0  0  0  0999 V2000
    5.4530  -10.2800   13.1698 O   0  0  0  0  0  0  0  0  0  0  0  0
    4.5711   -9.5261   13.6101 C   0  0  0  0  0  0  0  0  0  0  0  0
    2.9565  -10.4907   13.8365 O   0  0  0  0  0  0  0  0  0  0  0  0
    1.5311  -12.0199   13.8770 C   0  0  0  0  0  0  0  0  0  0  0  0
   -0.1355  -13.1964   13.4461 C   0  0  0  0  0  0  0  0  0  0  0  0
   -1.1922  -14.0266   14.9790 N   0  0  0  0  0  0  0  0  0  0  0  0
   -0.9210  -13.8764   16.6626 C   0  0  0  0  0  0  0  0  0  0  0  0
   -2.1191  -13.6547   17.2749 C   0  0  0  0  0  0  0  0  0  0  0  0
   -3.0801  -14.3834   16.5174 C   0  0  0  0  0  0  0  0  0  0  0  0
   -2.7945  -14.7237   15.1693 N   0  0  0  0  0  0  0  0  0  0  0  0
    5.3071   -7.6828   13.8392 C   0  0  0  0  0  0  0  0  0  0  0  0
    6.4584   -7.4770   14.6846 C   0  0  0  0  0  0  0  0  0  0  0  0
    5.9077   -6.4385   16.1907 N   0  0  0  0  0  0  0  0  0  0  0  0
    6.4111   -5.2460   15.8152 C   0  0  0  0  0  0  0  0  0  0  0  0
    6.2151   -3.4441   15.1807 C   0  0  0  0  0  0  0  0  0  0  0  0
    7.6253   -2.8419   15.0730 C   0  0  0  0  0  0  0  0  0  0  0  0
    7.8987   -1.5441   14.9946 F   0  0  0  0  0  0  0  0  0  0  0  0
    8.6145   -3.9579   15.0309 C   0  0  0  0  0  0  0  0  0  0  0  0
    8.0465   -5.7758   14.8855 C   0  0  0  0  0  0  0  0  0  0  0  0
    6.4066   -6.4821   15.0106 C   0  0  0  0  0  0  0  0  0  0  0  0
    0.8861  -11.5362   14.4205 H   0  0  0  0  0  0  0  0  0  0  0  0
    1.9479  -12.5199   14.7593 H   0  0  0  0  0  0  0  0  0  0  0  0
   -0.7815  -12.3923   13.1854 H   0  0  0  0  0  0  0  0  0  0  0  0
   -0.0104  -14.0247   12.7478 H   0  0  0  0  0  0  0  0  0  0  0  0
    0.1201  -13.7980   16.9241 H   0  0  0  0  0  0  0  0  0  0  0  0
   -2.2350  -13.2837   18.2759 H   0  0  0  0  0  0  0  0  0  0  0  0
   -3.8257  -15.0370   16.9015 H   0  0  0  0  0  0  0  0  0  0  0  0
    7.2827   -8.0787   14.9483 H   0  0  0  0  0  0  0  0  0  0  0  0
    4.9365   -6.4092   16.5218 H   0  0  0  0  0  0  0  0  0  0  0  0
    5.2246   -2.9835   15.1096 H   0  0  0  0  0  0  0  0  0  0  0  0
    9.6923   -3.7329   14.9632 H   0  0  0  0  0  0  0  0  0  0  0  0
    8.6888   -6.6541   14.7621 H   0  0  0  0  0  0  0  0  0  0  0  0
  1  2  2  0
  2  3  1  0
  3  4  1  0
  4  5  1  0
  5  6  1  0
  6  7  1  0
  7  8  2  0
  8  9  1  0
  9 10  2  0
  2 11  1  0
 11 12  2  0
 12 13  1  0
 13 14  1  0
 14 15  2  0
 15 16  1  0
 16 17  1  0
 16 18  2  0
 18 19  1  0
 19 20  2  0
 10  6  1  0
 20 11  1  0
 20 14  1  0
  4 21  1  0
  4 22  1  0
  5 23  1  0
  5 24  1  0
  7 25  1  0
  8 26  1  0
  9 27  1  0
 12 28  1  0
 13 29  1  0
 15 30  1  0
 18 31  1  0
 19 32  1  0
M  END
>  <Energy>  (408) 
1572.7903172067413

>  <compound_id>  (408) 
37119

>  <target_id>  (408) 
1

>  <reference_id>  (408) 
112

>  <inspiration_ids>  (408) 
[93, 112]

>  <energy_score>  (408) 
1520.8991040194378

>  <distance_score>  (408) 
11.21450254912496

>  <path>  (408) 
/opt/xchem-fragalysis-2/maxwin/BulkDock/SCRATCH/511017/C37119-P112/C37119-P112.minimised.mol

>  <scratch_subdir>  (408) 
/opt/xchem-fragalysis-2/maxwin/BulkDock/SCRATCH/511017/C37119-P112

>  <fragmenstein_runtime>  (408) 
7.309561014175415

>  <fragmenstein_outcome>  (408) 
too moved

>  <fragmenstein_mode>  (408) 
expansion

>  <fragmenstein_error>  (408) 


$$$$
C37120-P93
     RDKit          3D

 34 36  0  0  0  0  0  0  0  0999 V2000
   -2.1465   -5.2369   11.6749 O   0  0  0  0  0  0  0  0  0  0  0  0
   -1.7299   -5.5030   12.8007 C   0  0  0  0  0  0  0  0  0  0  0  0
   -2.4490   -6.3802   13.6268 O   0  0  0  0  0  0  0  0  0  0  0  0
   -3.6332   -7.0543   12.9479 C   0  0  0  0  0  0  0  0  0  0  0  0
   -4.4357   -8.0645   13.8415 C   0  0  0  0  0  0  0  0  0  0  0  0
   -5.4814   -8.9636   13.3038 N   0  0  0  0  0  0  0  0  0  0  0  0
   -6.3811   -9.6866   14.0736 C   0  0  0  0  0  0  0  0  0  0  0  0
   -7.0461  -10.5460   13.2295 C   0  0  0  0  0  0  0  0  0  0  0  0
   -6.5150  -10.2587   11.9640 C   0  0  0  0  0  0  0  0  0  0  0  0
   -5.6038   -9.2755   11.9904 N   0  0  0  0  0  0  0  0  0  0  0  0
   -0.4053   -4.9131   13.2612 C   0  0  0  0  0  0  0  0  0  0  0  0
    0.4990   -4.4112   12.3154 C   0  0  0  0  0  0  0  0  0  0  0  0
    1.6369   -3.9373   12.9075 N   0  0  0  0  0  0  0  0  0  0  0  0
    1.5290   -4.0468   14.2686 C   0  0  0  0  0  0  0  0  0  0  0  0
    2.4239   -3.6015   15.2604 C   0  0  0  0  0  0  0  0  0  0  0  0
    2.0530   -3.8339   16.5848 C   0  0  0  0  0  0  0  0  0  0  0  0
    2.8355   -3.2579   17.6709 N   0  0  0  0  0  0  0  0  0  0  0  0
    3.3711   -2.1598   17.4638 O   0  0  0  0  0  0  0  0  0  0  0  0
    2.8844   -3.8876   18.7370 O   0  0  0  0  0  0  0  0  0  0  0  0
    0.8831   -4.5205   16.9016 C   0  0  0  0  0  0  0  0  0  0  0  0
    0.0034   -4.9360   15.8863 C   0  0  0  0  0  0  0  0  0  0  0  0
    0.2948   -4.6857   14.5286 C   0  0  0  0  0  0  0  0  0  0  0  0
   -3.2522   -7.5724   12.0656 H   0  0  0  0  0  0  0  0  0  0  0  0
   -4.3125   -6.2574   12.6243 H   0  0  0  0  0  0  0  0  0  0  0  0
   -4.9191   -7.4937   14.6443 H   0  0  0  0  0  0  0  0  0  0  0  0
   -3.7385   -8.7422   14.3290 H   0  0  0  0  0  0  0  0  0  0  0  0
   -6.4286   -9.5456   15.1434 H   0  0  0  0  0  0  0  0  0  0  0  0
   -7.7977  -11.2762   13.4906 H   0  0  0  0  0  0  0  0  0  0  0  0
   -6.7667  -10.7104   11.0139 H   0  0  0  0  0  0  0  0  0  0  0  0
    0.4019   -4.3704   11.2364 H   0  0  0  0  0  0  0  0  0  0  0  0
    2.4198   -3.5243   12.4156 H   0  0  0  0  0  0  0  0  0  0  0  0
    3.3305   -3.0621   15.0021 H   0  0  0  0  0  0  0  0  0  0  0  0
    0.6030   -4.6956   17.9396 H   0  0  0  0  0  0  0  0  0  0  0  0
   -0.9312   -5.4138   16.1632 H   0  0  0  0  0  0  0  0  0  0  0  0
  1  2  2  0
  2  3  1  0
  3  4  1  0
  4  5  1  0
  5  6  1  0
  6  7  1  0
  7  8  2  0
  8  9  1  0
  9 10  2  0
  2 11  1  0
 11 12  2  0
 12 13  1  0
 13 14  1  0
 14 15  2  0
 15 16  1  0
 16 17  1  0
 17 18  2  0
 17 19  1  0
 16 20  2  0
 20 21  1  0
 21 22  2  0
 10  6  1  0
 22 11  1  0
 22 14  1  0
  4 23  1  0
  4 24  1  0
  5 25  1  0
  5 26  1  0
  7 27  1  0
  8 28  1  0
  9 29  1  0
 12 30  1  0
 13 31  1  0
 15 32  1  0
 20 33  1  0
 21 34  1  0
M  CHG  2  17   1  19  -1
M  END
>  <Energy>  (409) 
85.737298016400473

>  <compound_id>  (409) 
37120

>  <target_id>  (409) 
1

>  <reference_id>  (409) 
93

>  <inspiration_ids>  (409) 
[93, 112]

>  <energy_score>  (409) 
-8.035678661192264

>  <distance_score>  (409) 
14.851560412616

>  <path>  (409) 
/opt/xchem-fragalysis-2/maxwin/BulkDock/SCRATCH/511017/C37120-P93/C37120-P93.minimised.mol

>  <scratch_subdir>  (409) 
/opt/xchem-fragalysis-2/maxwin/BulkDock/SCRATCH/511017/C37120-P93

>  <fragmenstein_runtime>  (409) 
10.510155200958252

>  <fragmenstein_outcome>  (409) 
too moved

>  <fragmenstein_mode>  (409) 
expansion

>  <fragmenstein_error>  (409) 


$$$$
C37120-P112
     RDKit          3D

 34 36  0  0  0  0  0  0  0  0999 V2000
    4.9660   -7.5479   18.3835 O   0  0  0  0  0  0  0  0  0  0  0  0
    4.7430   -6.3936   18.1704 C   0  0  0  0  0  0  0  0  0  0  0  0
    3.5923   -5.9393   17.5140 O   0  0  0  0  0  0  0  0  0  0  0  0
    2.2598   -6.0968   18.2053 C   0  0  0  0  0  0  0  0  0  0  0  0
    1.3328   -7.3017   17.8242 C   0  0  0  0  0  0  0  0  0  0  0  0
    0.0975   -7.5787   18.6086 N   0  0  0  0  0  0  0  0  0  0  0  0
   -0.1028   -7.5297   19.9662 C   0  0  0  0  0  0  0  0  0  0  0  0
   -1.3540   -8.0484   20.2278 C   0  0  0  0  0  0  0  0  0  0  0  0
   -1.8794   -8.3515   18.9728 C   0  0  0  0  0  0  0  0  0  0  0  0
   -1.0312   -8.0287   17.9933 N   0  0  0  0  0  0  0  0  0  0  0  0
    5.7121   -5.5182   18.7570 C   0  0  0  0  0  0  0  0  0  0  0  0
    4.8795   -4.6344   19.4876 C   0  0  0  0  0  0  0  0  0  0  0  0
    5.3337   -4.2958   20.6810 N   0  0  0  0  0  0  0  0  0  0  0  0
    6.6312   -4.5944   20.6919 C   0  0  0  0  0  0  0  0  0  0  0  0
    7.7561   -3.9843   21.8035 C   0  0  0  0  0  0  0  0  0  0  0  0
    9.3054   -4.3910   21.9440 C   0  0  0  0  0  0  0  0  0  0  0  0
   10.0240   -3.9321   23.1371 N   0  0  0  0  0  0  0  0  0  0  0  0
    9.3818   -3.2552   23.9523 O   0  0  0  0  0  0  0  0  0  0  0  0
   11.2121   -4.2515   23.2619 O   0  0  0  0  0  0  0  0  0  0  0  0
   10.0270   -5.3364   20.9819 C   0  0  0  0  0  0  0  0  0  0  0  0
    9.1828   -5.9548   19.5541 C   0  0  0  0  0  0  0  0  0  0  0  0
    7.1078   -5.7837   19.4075 C   0  0  0  0  0  0  0  0  0  0  0  0
    1.7192   -5.1742   17.9623 H   0  0  0  0  0  0  0  0  0  0  0  0
    2.4202   -6.0590   19.2843 H   0  0  0  0  0  0  0  0  0  0  0  0
    1.9082   -8.2286   17.8340 H   0  0  0  0  0  0  0  0  0  0  0  0
    0.9896   -7.1501   16.7978 H   0  0  0  0  0  0  0  0  0  0  0  0
    0.6602   -7.1658   20.6357 H   0  0  0  0  0  0  0  0  0  0  0  0
   -1.8099   -8.1668   21.1995 H   0  0  0  0  0  0  0  0  0  0  0  0
   -2.8471   -8.7668   18.7189 H   0  0  0  0  0  0  0  0  0  0  0  0
    3.8762   -4.3004   19.2541 H   0  0  0  0  0  0  0  0  0  0  0  0
    4.8748   -3.6752   21.3347 H   0  0  0  0  0  0  0  0  0  0  0  0
    7.3132   -3.3157   22.5485 H   0  0  0  0  0  0  0  0  0  0  0  0
   11.1109   -5.4599   21.0244 H   0  0  0  0  0  0  0  0  0  0  0  0
    9.9887   -5.5857   18.8616 H   0  0  0  0  0  0  0  0  0  0  0  0
  1  2  2  0
  2  3  1  0
  3  4  1  0
  4  5  1  0
  5  6  1  0
  6  7  1  0
  7  8  2  0
  8  9  1  0
  9 10  2  0
  2 11  1  0
 11 12  2  0
 12 13  1  0
 13 14  1  0
 14 15  2  0
 15 16  1  0
 16 17  1  0
 17 18  2  0
 17 19  1  0
 16 20  2  0
 20 21  1  0
 21 22  2  0
 10  6  1  0
 22 11  1  0
 22 14  1  0
  4 23  1  0
  4 24  1  0
  5 25  1  0
  5 26  1  0
  7 27  1  0
  8 28  1  0
  9 29  1  0
 12 30  1  0
 13 31  1  0
 15 32  1  0
 20 33  1  0
 21 34  1  0
M  CHG  2  17   1  19  -1
M  END
>  <Energy>  (410) 
494.01107389358856

>  <compound_id>  (410) 
37120

>  <target_id>  (410) 
1

>  <reference_id>  (410) 
112

>  <inspiration_ids>  (410) 
[93, 112]

>  <energy_score>  (410) 
400.2380972159957

>  <distance_score>  (410) 
14.57256827250025

>  <path>  (410) 
/opt/xchem-fragalysis-2/maxwin/BulkDock/SCRATCH/511017/C37120-P112/C37120-P112.minimised.mol

>  <scratch_subdir>  (410) 
/opt/xchem-fragalysis-2/maxwin/BulkDock/SCRATCH/511017/C37120-P112

>  <fragmenstein_runtime>  (410) 
11.363254070281982

>  <fragmenstein_outcome>  (410) 
too moved

>  <fragmenstein_mode>  (410) 
expansion

>  <fragmenstein_error>  (410) 


$$$$
C37121-P93
     RDKit          3D

 44 46  0  0  0  0  0  0  0  0999 V2000
   -7.6475  -20.4754   17.9933 C   0  0  0  0  0  0  0  0  0  0  0  0
   -6.8168  -21.3361   16.9549 C   0  0  0  0  0  0  0  0  0  0  0  0
   -7.8120  -22.4476   15.3370 C   0  0  0  0  0  0  0  0  0  0  0  0
   -4.9384  -20.8370   17.5037 C   0  0  0  0  0  0  0  0  0  0  0  0
   -3.5219  -19.7722   17.2365 N   0  0  0  0  0  0  0  0  0  0  0  0
   -2.7741  -18.6527   18.0999 C   0  0  0  0  0  0  0  0  0  0  0  0
   -1.3164  -18.3035   17.7207 C   0  0  0  0  0  0  0  0  0  0  0  0
   -0.0952  -17.0863   18.3509 C   0  0  0  0  0  0  0  0  0  0  0  0
   -0.4965  -16.3933   19.2957 O   0  0  0  0  0  0  0  0  0  0  0  0
    1.4879  -16.6495   17.8850 O   0  0  0  0  0  0  0  0  0  0  0  0
    2.6609  -15.3458   18.5004 C   0  0  0  0  0  0  0  0  0  0  0  0
    4.5996  -14.7451   18.2917 C   0  0  0  0  0  0  0  0  0  0  0  0
    6.2270  -13.7951   18.9660 N   0  0  0  0  0  0  0  0  0  0  0  0
    6.2511  -12.0433   18.1398 C   0  0  0  0  0  0  0  0  0  0  0  0
    8.0292  -12.1256   17.0005 C   0  0  0  0  0  0  0  0  0  0  0  0
    9.1806  -13.9090   17.3728 C   0  0  0  0  0  0  0  0  0  0  0  0
    8.1972  -14.5251   18.9024 N   0  0  0  0  0  0  0  0  0  0  0  0
   -1.1721  -19.3570   16.7040 C   0  0  0  0  0  0  0  0  0  0  0  0
    0.0052  -19.6985   15.9850 C   0  0  0  0  0  0  0  0  0  0  0  0
    0.0307  -20.7401   15.0609 C   0  0  0  0  0  0  0  0  0  0  0  0
   -1.1065  -21.4901   14.8413 C   0  0  0  0  0  0  0  0  0  0  0  0
   -2.2882  -21.2163   15.5330 C   0  0  0  0  0  0  0  0  0  0  0  0
   -2.3747  -20.1623   16.4589 C   0  0  0  0  0  0  0  0  0  0  0  0
   -7.4623  -19.4040   17.8561 H   0  0  0  0  0  0  0  0  0  0  0  0
   -8.7124  -20.6735   17.9792 H   0  0  0  0  0  0  0  0  0  0  0  0
   -7.2921  -20.6610   19.0121 H   0  0  0  0  0  0  0  0  0  0  0  0
   -6.5550  -22.1893   17.5798 H   0  0  0  0  0  0  0  0  0  0  0  0
   -7.6104  -23.4744   15.4489 H   0  0  0  0  0  0  0  0  0  0  0  0
   -8.9556  -22.4228   15.3675 H   0  0  0  0  0  0  0  0  0  0  0  0
   -7.6585  -22.1157   14.2819 H   0  0  0  0  0  0  0  0  0  0  0  0
   -4.3709  -21.7698   17.4369 H   0  0  0  0  0  0  0  0  0  0  0  0
   -5.0377  -20.5679   18.5652 H   0  0  0  0  0  0  0  0  0  0  0  0
   -3.4042  -18.2399   18.8745 H   0  0  0  0  0  0  0  0  0  0  0  0
    2.1096  -14.5369   18.0234 H   0  0  0  0  0  0  0  0  0  0  0  0
    2.3232  -15.3819   19.5365 H   0  0  0  0  0  0  0  0  0  0  0  0
    4.1196  -13.7513   18.2803 H   0  0  0  0  0  0  0  0  0  0  0  0
    4.9008  -15.1878   17.3799 H   0  0  0  0  0  0  0  0  0  0  0  0
    6.1271  -11.3775   19.0083 H   0  0  0  0  0  0  0  0  0  0  0  0
    8.6629  -11.2174   16.9464 H   0  0  0  0  0  0  0  0  0  0  0  0
   10.2789  -13.9315   17.3969 H   0  0  0  0  0  0  0  0  0  0  0  0
    0.9214  -19.1352   16.1562 H   0  0  0  0  0  0  0  0  0  0  0  0
    0.9476  -20.9622   14.5230 H   0  0  0  0  0  0  0  0  0  0  0  0
   -1.0932  -22.3129   14.1301 H   0  0  0  0  0  0  0  0  0  0  0  0
   -3.1419  -21.8487   15.3334 H   0  0  0  0  0  0  0  0  0  0  0  0
  1  2  1  0
  2  3  1  0
  2  4  1  0
  4  5  1  0
  5  6  1  0
  6  7  2  0
  7  8  1  0
  8  9  2  0
  8 10  1  0
 10 11  1  0
 11 12  1  0
 12 13  1  0
 13 14  1  0
 14 15  2  0
 15 16  1  0
 16 17  2  0
  7 18  1  0
 18 19  2  0
 19 20  1  0
 20 21  2  0
 21 22  1  0
 22 23  2  0
 23  5  1  0
 17 13  1  0
 23 18  1  0
  1 24  1  0
  1 25  1  0
  1 26  1  0
  2 27  1  0
  3 28  1  0
  3 29  1  0
  3 30  1  0
  4 31  1  0
  4 32  1  0
  6 33  1  0
 11 34  1  0
 11 35  1  0
 12 36  1  0
 12 37  1  0
 14 38  1  0
 15 39  1  0
 16 40  1  0
 19 41  1  0
 20 42  1  0
 21 43  1  0
 22 44  1  0
M  END
>  <Energy>  (411) 
1517.1015708773641

>  <compound_id>  (411) 
37121

>  <target_id>  (411) 
1

>  <reference_id>  (411) 
93

>  <inspiration_ids>  (411) 
[93, 112]

>  <energy_score>  (411) 
1452.0933649860654

>  <distance_score>  (411) 
11.974891228309179

>  <path>  (411) 
/opt/xchem-fragalysis-2/maxwin/BulkDock/SCRATCH/511017/C37121-P93/C37121-P93.minimised.mol

>  <scratch_subdir>  (411) 
/opt/xchem-fragalysis-2/maxwin/BulkDock/SCRATCH/511017/C37121-P93

>  <fragmenstein_runtime>  (411) 
16.90131974220276

>  <fragmenstein_outcome>  (411) 
too moved

>  <fragmenstein_mode>  (411) 
expansion

>  <fragmenstein_error>  (411) 


$$$$
C37121-P112
     RDKit          3D

 44 46  0  0  0  0  0  0  0  0999 V2000
   -0.7328  -19.6119   13.6969 C   0  0  0  0  0  0  0  0  0  0  0  0
    0.2153  -20.4400   12.8217 C   0  0  0  0  0  0  0  0  0  0  0  0
   -0.6512  -20.9654   11.6513 C   0  0  0  0  0  0  0  0  0  0  0  0
    1.5392  -19.6800   12.2984 C   0  0  0  0  0  0  0  0  0  0  0  0
    2.7225  -19.2451   13.1305 N   0  0  0  0  0  0  0  0  0  0  0  0
    3.8236  -18.3753   12.6675 C   0  0  0  0  0  0  0  0  0  0  0  0
    4.4615  -17.7369   13.7610 C   0  0  0  0  0  0  0  0  0  0  0  0
    5.5387  -16.5408   14.0438 C   0  0  0  0  0  0  0  0  0  0  0  0
    6.3047  -16.7938   14.9809 O   0  0  0  0  0  0  0  0  0  0  0  0
    5.6027  -14.9479   13.2600 O   0  0  0  0  0  0  0  0  0  0  0  0
    6.6074  -13.3211   13.4584 C   0  0  0  0  0  0  0  0  0  0  0  0
    6.6426  -11.5643   13.5859 C   0  0  0  0  0  0  0  0  0  0  0  0
    8.4247  -10.7788   14.2305 N   0  0  0  0  0  0  0  0  0  0  0  0
    9.6039  -11.7245   15.0640 C   0  0  0  0  0  0  0  0  0  0  0  0
   10.7332  -10.9759   15.0881 C   0  0  0  0  0  0  0  0  0  0  0  0
   10.1104   -9.7681   15.2285 C   0  0  0  0  0  0  0  0  0  0  0  0
    8.7665   -9.9011   15.3869 N   0  0  0  0  0  0  0  0  0  0  0  0
    3.8970  -18.5159   14.9057 C   0  0  0  0  0  0  0  0  0  0  0  0
    4.1700  -18.4447   16.2990 C   0  0  0  0  0  0  0  0  0  0  0  0
    3.5385  -19.2934   17.2093 C   0  0  0  0  0  0  0  0  0  0  0  0
    2.6245  -20.2291   16.7610 C   0  0  0  0  0  0  0  0  0  0  0  0
    2.3026  -20.3165   15.4047 C   0  0  0  0  0  0  0  0  0  0  0  0
    2.9151  -19.4444   14.4850 C   0  0  0  0  0  0  0  0  0  0  0  0
   -1.1786  -18.7925   13.1243 H   0  0  0  0  0  0  0  0  0  0  0  0
   -0.2036  -19.1797   14.5494 H   0  0  0  0  0  0  0  0  0  0  0  0
   -1.5459  -20.2318   14.0899 H   0  0  0  0  0  0  0  0  0  0  0  0
    0.5391  -21.3241   13.3771 H   0  0  0  0  0  0  0  0  0  0  0  0
   -1.0165  -20.1397   11.0316 H   0  0  0  0  0  0  0  0  0  0  0  0
   -0.0605  -21.6306   11.0129 H   0  0  0  0  0  0  0  0  0  0  0  0
   -1.5127  -21.5323   12.0200 H   0  0  0  0  0  0  0  0  0  0  0  0
    1.2218  -18.7672   11.7797 H   0  0  0  0  0  0  0  0  0  0  0  0
    2.0105  -20.3304   11.5495 H   0  0  0  0  0  0  0  0  0  0  0  0
    3.8608  -18.1768   11.6066 H   0  0  0  0  0  0  0  0  0  0  0  0
    7.2604  -13.5548   14.3129 H   0  0  0  0  0  0  0  0  0  0  0  0
    5.7216  -12.9213   13.9119 H   0  0  0  0  0  0  0  0  0  0  0  0
    6.0566  -10.9425   12.8821 H   0  0  0  0  0  0  0  0  0  0  0  0
    5.8821  -11.0350   14.2298 H   0  0  0  0  0  0  0  0  0  0  0  0
    9.2813  -12.7074   15.3501 H   0  0  0  0  0  0  0  0  0  0  0  0
   11.7642  -11.2442   15.2401 H   0  0  0  0  0  0  0  0  0  0  0  0
   10.5500   -8.7876   15.2783 H   0  0  0  0  0  0  0  0  0  0  0  0
    4.8946  -17.7300   16.6797 H   0  0  0  0  0  0  0  0  0  0  0  0
    3.7773  -19.2190   18.2666 H   0  0  0  0  0  0  0  0  0  0  0  0
    2.1436  -20.8990   17.4691 H   0  0  0  0  0  0  0  0  0  0  0  0
    1.5824  -21.0623   15.0971 H   0  0  0  0  0  0  0  0  0  0  0  0
  1  2  1  0
  2  3  1  0
  2  4  1  0
  4  5  1  0
  5  6  1  0
  6  7  2  0
  7  8  1  0
  8  9  2  0
  8 10  1  0
 10 11  1  0
 11 12  1  0
 12 13  1  0
 13 14  1  0
 14 15  2  0
 15 16  1  0
 16 17  2  0
  7 18  1  0
 18 19  2  0
 19 20  1  0
 20 21  2  0
 21 22  1  0
 22 23  2  0
 23  5  1  0
 17 13  1  0
 23 18  1  0
  1 24  1  0
  1 25  1  0
  1 26  1  0
  2 27  1  0
  3 28  1  0
  3 29  1  0
  3 30  1  0
  4 31  1  0
  4 32  1  0
  6 33  1  0
 11 34  1  0
 11 35  1  0
 12 36  1  0
 12 37  1  0
 14 38  1  0
 15 39  1  0
 16 40  1  0
 19 41  1  0
 20 42  1  0
 21 43  1  0
 22 44  1  0
M  END
>  <Energy>  (412) 
519.02710572170474

>  <compound_id>  (412) 
37121

>  <target_id>  (412) 
1

>  <reference_id>  (412) 
112

>  <inspiration_ids>  (412) 
[93, 112]

>  <energy_score>  (412) 
454.0188998304044

>  <distance_score>  (412) 
14.492707356331117

>  <path>  (412) 
/opt/xchem-fragalysis-2/maxwin/BulkDock/SCRATCH/511017/C37121-P112/C37121-P112.minimised.mol

>  <scratch_subdir>  (412) 
/opt/xchem-fragalysis-2/maxwin/BulkDock/SCRATCH/511017/C37121-P112

>  <fragmenstein_runtime>  (412) 
18.60062074661255

>  <fragmenstein_outcome>  (412) 
too moved

>  <fragmenstein_mode>  (412) 
expansion

>  <fragmenstein_error>  (412) 


$$$$
C37125-P93
     RDKit          3D

 44 46  0  0  0  0  0  0  0  0999 V2000
    2.0413  -12.5581   15.4408 C   0  0  0  0  0  0  0  0  0  0  0  0
    3.7881  -11.4954   15.9482 C   0  0  0  0  0  0  0  0  0  0  0  0
    4.1792  -11.7497   17.6334 C   0  0  0  0  0  0  0  0  0  0  0  0
    4.0200  -13.0628   18.3614 N   0  0  0  0  0  0  0  0  0  0  0  0
    4.9525  -14.0813   18.4665 C   0  0  0  0  0  0  0  0  0  0  0  0
    4.2883  -15.2135   18.8972 C   0  0  0  0  0  0  0  0  0  0  0  0
    2.9827  -14.7842   19.1485 C   0  0  0  0  0  0  0  0  0  0  0  0
    2.8254  -13.4888   18.8751 N   0  0  0  0  0  0  0  0  0  0  0  0
    5.3604  -10.6993   15.2305 N   0  0  0  0  0  0  0  0  0  0  0  0
    6.0311   -9.1210   15.4513 C   0  0  0  0  0  0  0  0  0  0  0  0
    5.5399   -8.2125   16.0565 O   0  0  0  0  0  0  0  0  0  0  0  0
    7.6664   -9.1025   14.6955 N   0  0  0  0  0  0  0  0  0  0  0  0
    7.5635   -8.6381   13.3143 C   0  0  0  0  0  0  0  0  0  0  0  0
    9.1236   -7.7183   14.7683 C   0  0  0  0  0  0  0  0  0  0  0  0
   10.7623   -6.4610   15.1932 C   0  0  0  0  0  0  0  0  0  0  0  0
   11.7919   -6.3384   16.2143 C   0  0  0  0  0  0  0  0  0  0  0  0
   12.8686   -5.3822   16.4728 C   0  0  0  0  0  0  0  0  0  0  0  0
   12.5554   -4.0970   16.7716 C   0  0  0  0  0  0  0  0  0  0  0  0
   11.5586   -3.7420   15.8817 C   0  0  0  0  0  0  0  0  0  0  0  0
   11.3681   -2.4458   15.4377 N   0  0  0  0  0  0  0  0  0  0  0  0
   11.5768   -2.5389   14.1042 C   0  0  0  0  0  0  0  0  0  0  0  0
   11.2198   -3.8280   13.7807 C   0  0  0  0  0  0  0  0  0  0  0  0
   10.8497   -4.6506   14.9849 C   0  0  0  0  0  0  0  0  0  0  0  0
    1.4981  -13.2254   16.1337 H   0  0  0  0  0  0  0  0  0  0  0  0
    2.2999  -13.3130   14.8307 H   0  0  0  0  0  0  0  0  0  0  0  0
    1.3643  -12.2501   14.5718 H   0  0  0  0  0  0  0  0  0  0  0  0
    4.3629  -12.2195   15.4114 H   0  0  0  0  0  0  0  0  0  0  0  0
    3.6302  -11.0058   18.2179 H   0  0  0  0  0  0  0  0  0  0  0  0
    5.2436  -11.5073   17.7426 H   0  0  0  0  0  0  0  0  0  0  0  0
    5.9792  -13.9191   18.1706 H   0  0  0  0  0  0  0  0  0  0  0  0
    4.7102  -16.1969   19.0458 H   0  0  0  0  0  0  0  0  0  0  0  0
    2.1458  -15.3464   19.5397 H   0  0  0  0  0  0  0  0  0  0  0  0
    6.0319  -11.2855   14.7476 H   0  0  0  0  0  0  0  0  0  0  0  0
    7.8714   -9.4668   12.6636 H   0  0  0  0  0  0  0  0  0  0  0  0
    6.4823   -8.6008   13.1128 H   0  0  0  0  0  0  0  0  0  0  0  0
    7.8759   -7.6877   12.9284 H   0  0  0  0  0  0  0  0  0  0  0  0
    8.4026   -6.9429   14.8712 H   0  0  0  0  0  0  0  0  0  0  0  0
    9.5898   -8.4870   15.3749 H   0  0  0  0  0  0  0  0  0  0  0  0
   11.1082   -5.8256   16.9194 H   0  0  0  0  0  0  0  0  0  0  0  0
   13.8833   -5.5646   16.1561 H   0  0  0  0  0  0  0  0  0  0  0  0
   13.2847   -3.3707   17.1101 H   0  0  0  0  0  0  0  0  0  0  0  0
   11.6635   -1.6340   15.9561 H   0  0  0  0  0  0  0  0  0  0  0  0
   11.9059   -1.7021   13.5041 H   0  0  0  0  0  0  0  0  0  0  0  0
   11.3309   -4.2164   12.7802 H   0  0  0  0  0  0  0  0  0  0  0  0
  1  2  1  0
  2  3  1  0
  3  4  1  0
  4  5  1  0
  5  6  2  0
  6  7  1  0
  7  8  2  0
  2  9  1  0
  9 10  1  0
 10 11  2  0
 10 12  1  0
 12 13  1  0
 12 14  1  0
 14 15  1  0
 15 16  2  0
 16 17  1  0
 17 18  2  0
 18 19  1  0
 19 20  1  0
 20 21  1  0
 21 22  2  0
 22 23  1  0
  8  4  1  0
 23 15  1  0
 23 19  2  0
  1 24  1  0
  1 25  1  0
  1 26  1  0
  2 27  1  0
  3 28  1  0
  3 29  1  0
  5 30  1  0
  6 31  1  0
  7 32  1  0
  9 33  1  0
 13 34  1  0
 13 35  1  0
 13 36  1  0
 14 37  1  0
 14 38  1  0
 16 39  1  0
 17 40  1  0
 18 41  1  0
 20 42  1  0
 21 43  1  0
 22 44  1  0
M  END
>  <Energy>  (413) 
781.97126413921853

>  <compound_id>  (413) 
37125

>  <target_id>  (413) 
1

>  <reference_id>  (413) 
93

>  <inspiration_ids>  (413) 
[93, 112]

>  <energy_score>  (413) 
783.3127443369156

>  <distance_score>  (413) 
12.7607873054141

>  <path>  (413) 
/opt/xchem-fragalysis-2/maxwin/BulkDock/SCRATCH/511017/C37125-P93/C37125-P93.minimised.mol

>  <scratch_subdir>  (413) 
/opt/xchem-fragalysis-2/maxwin/BulkDock/SCRATCH/511017/C37125-P93

>  <fragmenstein_runtime>  (413) 
18.16044521331787

>  <fragmenstein_outcome>  (413) 
too moved

>  <fragmenstein_mode>  (413) 
expansion

>  <fragmenstein_error>  (413) 


$$$$
C37125-P112
     RDKit          3D

 44 46  0  0  0  0  0  0  0  0999 V2000
    3.7183   -6.5760   16.6790 C   0  0  0  0  0  0  0  0  0  0  0  0
    5.1789   -7.0307   16.8469 C   0  0  0  0  0  0  0  0  0  0  0  0
    5.1802   -7.8572   18.1827 C   0  0  0  0  0  0  0  0  0  0  0  0
    4.7016   -9.2663   18.1143 N   0  0  0  0  0  0  0  0  0  0  0  0
    4.9321  -10.2062   17.1375 C   0  0  0  0  0  0  0  0  0  0  0  0
    4.7863  -11.4363   17.7386 C   0  0  0  0  0  0  0  0  0  0  0  0
    4.3477  -11.1594   19.0328 C   0  0  0  0  0  0  0  0  0  0  0  0
    4.2300   -9.8449   19.2505 N   0  0  0  0  0  0  0  0  0  0  0  0
    6.0622   -5.7818   16.7074 N   0  0  0  0  0  0  0  0  0  0  0  0
    7.3888   -5.4578   15.6906 C   0  0  0  0  0  0  0  0  0  0  0  0
    7.8896   -6.2496   14.9596 O   0  0  0  0  0  0  0  0  0  0  0  0
    8.0210   -3.6713   15.7760 N   0  0  0  0  0  0  0  0  0  0  0  0
    7.2629   -2.5780   14.7159 C   0  0  0  0  0  0  0  0  0  0  0  0
    9.4069   -2.8991   15.0093 C   0  0  0  0  0  0  0  0  0  0  0  0
   10.9258   -3.0189   15.3285 C   0  0  0  0  0  0  0  0  0  0  0  0
   11.6451   -4.1966   15.5527 C   0  0  0  0  0  0  0  0  0  0  0  0
   13.0079   -4.2289   15.8525 C   0  0  0  0  0  0  0  0  0  0  0  0
   13.7777   -3.0830   15.8930 C   0  0  0  0  0  0  0  0  0  0  0  0
   13.1279   -1.9117   15.5384 C   0  0  0  0  0  0  0  0  0  0  0  0
   13.6557   -0.6528   15.3814 N   0  0  0  0  0  0  0  0  0  0  0  0
   12.6997    0.1987   14.9112 C   0  0  0  0  0  0  0  0  0  0  0  0
   11.5174   -0.4996   14.8434 C   0  0  0  0  0  0  0  0  0  0  0  0
   11.7618   -1.8516   15.2441 C   0  0  0  0  0  0  0  0  0  0  0  0
    3.0247   -7.4151   16.7862 H   0  0  0  0  0  0  0  0  0  0  0  0
    3.5407   -6.1309   15.7022 H   0  0  0  0  0  0  0  0  0  0  0  0
    3.4536   -5.8206   17.4280 H   0  0  0  0  0  0  0  0  0  0  0  0
    5.4304   -7.6671   15.9936 H   0  0  0  0  0  0  0  0  0  0  0  0
    6.1627   -7.9020   18.6578 H   0  0  0  0  0  0  0  0  0  0  0  0
    4.5307   -7.3646   18.9196 H   0  0  0  0  0  0  0  0  0  0  0  0
    5.3017   -9.9354   16.1575 H   0  0  0  0  0  0  0  0  0  0  0  0
    5.0217  -12.3996   17.3284 H   0  0  0  0  0  0  0  0  0  0  0  0
    4.1123  -11.8502   19.8320 H   0  0  0  0  0  0  0  0  0  0  0  0
    5.7883   -4.9604   17.1443 H   0  0  0  0  0  0  0  0  0  0  0  0
    7.3540   -1.5932   15.2002 H   0  0  0  0  0  0  0  0  0  0  0  0
    7.5954   -2.4428   13.7046 H   0  0  0  0  0  0  0  0  0  0  0  0
    6.1844   -2.7581   14.6996 H   0  0  0  0  0  0  0  0  0  0  0  0
    9.2803   -1.9323   15.5511 H   0  0  0  0  0  0  0  0  0  0  0  0
    9.3439   -2.4024   14.0674 H   0  0  0  0  0  0  0  0  0  0  0  0
   11.1937   -5.1709   15.4894 H   0  0  0  0  0  0  0  0  0  0  0  0
   13.4687   -5.1911   16.0369 H   0  0  0  0  0  0  0  0  0  0  0  0
   14.8367   -3.1230   16.1171 H   0  0  0  0  0  0  0  0  0  0  0  0
   14.6267   -0.4176   15.5317 H   0  0  0  0  0  0  0  0  0  0  0  0
   12.9345    1.2257   14.6693 H   0  0  0  0  0  0  0  0  0  0  0  0
   10.5754   -0.0933   14.4942 H   0  0  0  0  0  0  0  0  0  0  0  0
  1  2  1  0
  2  3  1  0
  3  4  1  0
  4  5  1  0
  5  6  2  0
  6  7  1  0
  7  8  2  0
  2  9  1  0
  9 10  1  0
 10 11  2  0
 10 12  1  0
 12 13  1  0
 12 14  1  0
 14 15  1  0
 15 16  2  0
 16 17  1  0
 17 18  2  0
 18 19  1  0
 19 20  1  0
 20 21  1  0
 21 22  2  0
 22 23  1  0
  8  4  1  0
 23 15  1  0
 23 19  2  0
  1 24  1  0
  1 25  1  0
  1 26  1  0
  2 27  1  0
  3 28  1  0
  3 29  1  0
  5 30  1  0
  6 31  1  0
  7 32  1  0
  9 33  1  0
 13 34  1  0
 13 35  1  0
 13 36  1  0
 14 37  1  0
 14 38  1  0
 16 39  1  0
 17 40  1  0
 18 41  1  0
 20 42  1  0
 21 43  1  0
 22 44  1  0
M  END
>  <Energy>  (414) 
216.4344881285939

>  <compound_id>  (414) 
37125

>  <target_id>  (414) 
1

>  <reference_id>  (414) 
112

>  <inspiration_ids>  (414) 
[93, 112]

>  <energy_score>  (414) 
217.77596832629726

>  <distance_score>  (414) 
13.388138711027265

>  <path>  (414) 
/opt/xchem-fragalysis-2/maxwin/BulkDock/SCRATCH/511017/C37125-P112/C37125-P112.minimised.mol

>  <scratch_subdir>  (414) 
/opt/xchem-fragalysis-2/maxwin/BulkDock/SCRATCH/511017/C37125-P112

>  <fragmenstein_runtime>  (414) 
15.424297094345093

>  <fragmenstein_outcome>  (414) 
too moved

>  <fragmenstein_mode>  (414) 
expansion

>  <fragmenstein_error>  (414) 


$$$$
C37128-P93
     RDKit          3D

 42 45  0  0  0  0  0  0  0  0999 V2000
    3.0827  -18.2584   11.4192 O   0  0  0  0  0  0  0  0  0  0  0  0
    3.3245  -18.7961   12.4968 C   0  0  0  0  0  0  0  0  0  0  0  0
    4.6561  -18.5071   13.2882 C   0  0  0  0  0  0  0  0  0  0  0  0
    5.0447  -17.0140   13.8347 C   0  0  0  0  0  0  0  0  0  0  0  0
    5.5030  -15.2437   13.2917 C   0  0  0  0  0  0  0  0  0  0  0  0
    5.9371  -14.5420   12.0194 C   0  0  0  0  0  0  0  0  0  0  0  0
    6.8720  -13.7075   12.6889 N   0  0  0  0  0  0  0  0  0  0  0  0
    7.7302  -14.0540   14.3232 C   0  0  0  0  0  0  0  0  0  0  0  0
    9.3161  -13.2495   15.1633 C   0  0  0  0  0  0  0  0  0  0  0  0
    9.7796  -12.0899   15.3952 C   0  0  0  0  0  0  0  0  0  0  0  0
    8.6829  -12.4970   15.8943 C   0  0  0  0  0  0  0  0  0  0  0  0
    7.3112  -13.6800   15.1696 C   0  0  0  0  0  0  0  0  0  0  0  0
    6.4129  -13.7221   13.9978 C   0  0  0  0  0  0  0  0  0  0  0  0
    2.5092  -19.7716   13.0665 O   0  0  0  0  0  0  0  0  0  0  0  0
    1.1811  -19.9706   12.4436 C   0  0  0  0  0  0  0  0  0  0  0  0
    0.0197  -20.5569   13.3336 C   0  0  0  0  0  0  0  0  0  0  0  0
    0.1368  -21.9100   12.6173 C   0  0  0  0  0  0  0  0  0  0  0  0
   -1.1547  -22.4953   12.1450 N   0  0  0  0  0  0  0  0  0  0  0  0
   -1.5431  -23.7783   12.4360 C   0  0  0  0  0  0  0  0  0  0  0  0
   -2.6915  -24.0070   11.7166 C   0  0  0  0  0  0  0  0  0  0  0  0
   -2.9313  -22.7907   11.0492 C   0  0  0  0  0  0  0  0  0  0  0  0
   -1.9836  -21.8756   11.2850 N   0  0  0  0  0  0  0  0  0  0  0  0
    0.9640  -21.2025   11.5180 C   0  0  0  0  0  0  0  0  0  0  0  0
    5.4651  -18.8897   12.6518 H   0  0  0  0  0  0  0  0  0  0  0  0
    4.6178  -19.1481   14.1791 H   0  0  0  0  0  0  0  0  0  0  0  0
    4.3889  -16.8148   12.9801 H   0  0  0  0  0  0  0  0  0  0  0  0
    6.0426  -17.3428   14.1038 H   0  0  0  0  0  0  0  0  0  0  0  0
    5.8965  -14.6843   10.9403 H   0  0  0  0  0  0  0  0  0  0  0  0
    7.5630  -13.5871   12.0074 H   0  0  0  0  0  0  0  0  0  0  0  0
    9.9339  -14.0756   15.7557 H   0  0  0  0  0  0  0  0  0  0  0  0
   10.5852  -11.6431   15.9298 H   0  0  0  0  0  0  0  0  0  0  0  0
    8.4232  -11.7684   16.6978 H   0  0  0  0  0  0  0  0  0  0  0  0
    7.3484  -14.9833   15.7008 H   0  0  0  0  0  0  0  0  0  0  0  0
    0.8441  -19.0370   11.9736 H   0  0  0  0  0  0  0  0  0  0  0  0
   -0.9450  -20.0586   13.1905 H   0  0  0  0  0  0  0  0  0  0  0  0
    0.2364  -20.5871   14.4059 H   0  0  0  0  0  0  0  0  0  0  0  0
    0.7374  -22.6314   13.1868 H   0  0  0  0  0  0  0  0  0  0  0  0
   -0.9769  -24.4022   13.1107 H   0  0  0  0  0  0  0  0  0  0  0  0
   -3.3002  -24.8980   11.7068 H   0  0  0  0  0  0  0  0  0  0  0  0
   -3.7629  -22.5335   10.4080 H   0  0  0  0  0  0  0  0  0  0  0  0
    0.4306  -20.9501   10.5945 H   0  0  0  0  0  0  0  0  0  0  0  0
    1.8823  -21.7306   11.2404 H   0  0  0  0  0  0  0  0  0  0  0  0
  1  2  2  0
  2  3  1  0
  3  4  1  0
  4  5  1  0
  5  6  2  0
  6  7  1  0
  7  8  1  0
  8  9  2  0
  9 10  1  0
 10 11  2  0
 11 12  1  0
 12 13  2  0
  2 14  1  0
 14 15  1  0
 15 16  1  0
 16 17  1  0
 17 18  1  0
 18 19  1  0
 19 20  2  0
 20 21  1  0
 21 22  2  0
 17 23  1  0
 13  5  1  0
 23 15  1  0
 13  8  1  0
 22 18  1  0
  3 24  1  0
  3 25  1  0
  4 26  1  0
  4 27  1  0
  6 28  1  0
  7 29  1  0
  9 30  1  0
 10 31  1  0
 11 32  1  0
 12 33  1  0
 15 34  1  0
 16 35  1  0
 16 36  1  0
 17 37  1  0
 19 38  1  0
 20 39  1  0
 21 40  1  0
 23 41  1  0
 23 42  1  0
M  END
>  <Energy>  (415) 
1027.5602352203123

>  <compound_id>  (415) 
37128

>  <target_id>  (415) 
1

>  <reference_id>  (415) 
93

>  <inspiration_ids>  (415) 
[93, 112]

>  <energy_score>  (415) 
968.0698748581578

>  <distance_score>  (415) 
13.884608915654331

>  <path>  (415) 
/opt/xchem-fragalysis-2/maxwin/BulkDock/SCRATCH/511017/C37128-P93/C37128-P93.minimised.mol

>  <scratch_subdir>  (415) 
/opt/xchem-fragalysis-2/maxwin/BulkDock/SCRATCH/511017/C37128-P93

>  <fragmenstein_runtime>  (415) 
15.621981143951416

>  <fragmenstein_outcome>  (415) 
too moved

>  <fragmenstein_mode>  (415) 
expansion

>  <fragmenstein_error>  (415) 


$$$$
C37128-P112
     RDKit          3D

 42 45  0  0  0  0  0  0  0  0999 V2000
    1.9019  -16.1612    7.1196 O   0  0  0  0  0  0  0  0  0  0  0  0
    2.6805  -16.0673    8.0663 C   0  0  0  0  0  0  0  0  0  0  0  0
    3.8053  -14.9419    8.0867 C   0  0  0  0  0  0  0  0  0  0  0  0
    5.3034  -15.3130    8.0977 C   0  0  0  0  0  0  0  0  0  0  0  0
    6.4795  -14.2440    8.1147 C   0  0  0  0  0  0  0  0  0  0  0  0
    7.7729  -14.6139    8.4905 C   0  0  0  0  0  0  0  0  0  0  0  0
    8.6379  -13.5609    8.3657 N   0  0  0  0  0  0  0  0  0  0  0  0
    7.9787  -12.4637    7.8784 C   0  0  0  0  0  0  0  0  0  0  0  0
    8.4879  -11.1809    7.6001 C   0  0  0  0  0  0  0  0  0  0  0  0
    7.5863  -10.1914    7.2133 C   0  0  0  0  0  0  0  0  0  0  0  0
    6.2359  -10.4952    7.0780 C   0  0  0  0  0  0  0  0  0  0  0  0
    5.7513  -11.8016    7.3072 C   0  0  0  0  0  0  0  0  0  0  0  0
    6.6234  -12.8329    7.7302 C   0  0  0  0  0  0  0  0  0  0  0  0
    2.5496  -16.8663    9.1877 O   0  0  0  0  0  0  0  0  0  0  0  0
    1.1818  -17.3736    9.5404 C   0  0  0  0  0  0  0  0  0  0  0  0
    0.2880  -18.2503    8.5959 C   0  0  0  0  0  0  0  0  0  0  0  0
    0.1166  -19.3469    9.6763 C   0  0  0  0  0  0  0  0  0  0  0  0
   -1.2790  -19.5931   10.2130 N   0  0  0  0  0  0  0  0  0  0  0  0
   -2.2757  -20.1753    9.4598 C   0  0  0  0  0  0  0  0  0  0  0  0
   -3.2455  -20.6040   10.3390 C   0  0  0  0  0  0  0  0  0  0  0  0
   -2.7554  -20.2435   11.6053 C   0  0  0  0  0  0  0  0  0  0  0  0
   -1.5775  -19.6086   11.5358 N   0  0  0  0  0  0  0  0  0  0  0  0
    1.0802  -18.5417   10.5742 C   0  0  0  0  0  0  0  0  0  0  0  0
    3.5656  -14.2464    8.8887 H   0  0  0  0  0  0  0  0  0  0  0  0
    3.6321  -14.3594    7.1706 H   0  0  0  0  0  0  0  0  0  0  0  0
    5.4949  -15.9456    7.2199 H   0  0  0  0  0  0  0  0  0  0  0  0
    5.4683  -15.9614    8.9689 H   0  0  0  0  0  0  0  0  0  0  0  0
    8.1564  -15.5767    8.7964 H   0  0  0  0  0  0  0  0  0  0  0  0
    9.6286  -13.5923    8.5606 H   0  0  0  0  0  0  0  0  0  0  0  0
    9.5415  -10.9522    7.7222 H   0  0  0  0  0  0  0  0  0  0  0  0
    7.9367   -9.1808    7.0208 H   0  0  0  0  0  0  0  0  0  0  0  0
    5.5360   -9.7178    6.7791 H   0  0  0  0  0  0  0  0  0  0  0  0
    4.6903  -12.0035    7.1885 H   0  0  0  0  0  0  0  0  0  0  0  0
    0.6163  -16.5252    9.9396 H   0  0  0  0  0  0  0  0  0  0  0  0
   -0.6382  -17.7667    8.2713 H   0  0  0  0  0  0  0  0  0  0  0  0
    0.8119  -18.6095    7.7029 H   0  0  0  0  0  0  0  0  0  0  0  0
    0.5553  -20.3053    9.3669 H   0  0  0  0  0  0  0  0  0  0  0  0
   -2.1780  -20.2707    8.3880 H   0  0  0  0  0  0  0  0  0  0  0  0
   -4.1561  -21.1359   10.1065 H   0  0  0  0  0  0  0  0  0  0  0  0
   -3.2030  -20.4258   12.5757 H   0  0  0  0  0  0  0  0  0  0  0  0
    0.6901  -18.2377   11.5436 H   0  0  0  0  0  0  0  0  0  0  0  0
    2.0357  -19.0507   10.7477 H   0  0  0  0  0  0  0  0  0  0  0  0
  1  2  2  0
  2  3  1  0
  3  4  1  0
  4  5  1  0
  5  6  2  0
  6  7  1  0
  7  8  1  0
  8  9  2  0
  9 10  1  0
 10 11  2  0
 11 12  1  0
 12 13  2  0
  2 14  1  0
 14 15  1  0
 15 16  1  0
 16 17  1  0
 17 18  1  0
 18 19  1  0
 19 20  2  0
 20 21  1  0
 21 22  2  0
 17 23  1  0
 13  5  1  0
 23 15  1  0
 13  8  1  0
 22 18  1  0
  3 24  1  0
  3 25  1  0
  4 26  1  0
  4 27  1  0
  6 28  1  0
  7 29  1  0
  9 30  1  0
 10 31  1  0
 11 32  1  0
 12 33  1  0
 15 34  1  0
 16 35  1  0
 16 36  1  0
 17 37  1  0
 19 38  1  0
 20 39  1  0
 21 40  1  0
 23 41  1  0
 23 42  1  0
M  END
>  <Energy>  (416) 
46.156949637523212

>  <compound_id>  (416) 
37128

>  <target_id>  (416) 
1

>  <reference_id>  (416) 
112

>  <inspiration_ids>  (416) 
[93, 112]

>  <energy_score>  (416) 
-13.333410724621572

>  <distance_score>  (416) 
15.013495406832755

>  <path>  (416) 
/opt/xchem-fragalysis-2/maxwin/BulkDock/SCRATCH/511017/C37128-P112/C37128-P112.minimised.mol

>  <scratch_subdir>  (416) 
/opt/xchem-fragalysis-2/maxwin/BulkDock/SCRATCH/511017/C37128-P112

>  <fragmenstein_runtime>  (416) 
13.141584396362305

>  <fragmenstein_outcome>  (416) 
too moved

>  <fragmenstein_mode>  (416) 
expansion

>  <fragmenstein_error>  (416) 


$$$$
C37142-P93
     RDKit          3D

 46 48  0  0  0  0  0  0  0  0999 V2000
    8.7255   -9.7894   14.2566 C   0  0  0  0  0  0  0  0  0  0  0  0
    9.5952  -10.8522   13.3713 C   0  0  0  0  0  0  0  0  0  0  0  0
    8.6233  -11.7717   13.7101 N   0  0  0  0  0  0  0  0  0  0  0  0
    9.9477  -11.8511   15.0202 C   0  0  0  0  0  0  0  0  0  0  0  0
   10.8646  -10.2559   15.8012 C   0  0  0  0  0  0  0  0  0  0  0  0
   12.2707   -8.9705   15.7802 N   0  0  0  0  0  0  0  0  0  0  0  0
   12.2574   -7.0587   15.9471 C   0  0  0  0  0  0  0  0  0  0  0  0
   11.2049   -6.5260   15.9966 O   0  0  0  0  0  0  0  0  0  0  0  0
   13.5270   -5.8095   16.1008 C   0  0  0  0  0  0  0  0  0  0  0  0
   12.8929   -4.6941   16.7554 C   0  0  0  0  0  0  0  0  0  0  0  0
   13.4778   -3.4524   17.0851 C   0  0  0  0  0  0  0  0  0  0  0  0
   14.8086   -3.2177   16.7568 C   0  0  0  0  0  0  0  0  0  0  0  0
   15.7105   -2.1379   16.9423 C   0  0  0  0  0  0  0  0  0  0  0  0
   16.9010   -2.4885   16.3483 C   0  0  0  0  0  0  0  0  0  0  0  0
   16.7417   -3.7323   15.7962 N   0  0  0  0  0  0  0  0  0  0  0  0
   15.4791   -4.2089   16.0617 C   0  0  0  0  0  0  0  0  0  0  0  0
   14.8639   -5.4328   15.7013 C   0  0  0  0  0  0  0  0  0  0  0  0
    8.0698  -13.0435   12.9219 C   0  0  0  0  0  0  0  0  0  0  0  0
    8.4834  -13.5146   11.8734 O   0  0  0  0  0  0  0  0  0  0  0  0
    6.4607  -13.9372   13.4699 C   0  0  0  0  0  0  0  0  0  0  0  0
    5.3927  -15.6121   13.6037 N   0  0  0  0  0  0  0  0  0  0  0  0
    5.4994  -16.7482   14.8834 C   0  0  0  0  0  0  0  0  0  0  0  0
    4.8764  -17.9245   14.5541 C   0  0  0  0  0  0  0  0  0  0  0  0
    4.3650  -17.7510   13.2703 C   0  0  0  0  0  0  0  0  0  0  0  0
    4.6617  -16.5823   12.6597 N   0  0  0  0  0  0  0  0  0  0  0  0
    9.1869   -8.8803   14.6373 H   0  0  0  0  0  0  0  0  0  0  0  0
    8.3662  -10.1969   15.1981 H   0  0  0  0  0  0  0  0  0  0  0  0
    7.8534   -9.4817   13.6618 H   0  0  0  0  0  0  0  0  0  0  0  0
   10.6806  -11.0090   13.3975 H   0  0  0  0  0  0  0  0  0  0  0  0
    9.4642  -10.6280   12.3078 H   0  0  0  0  0  0  0  0  0  0  0  0
    9.4224  -12.3052   15.8694 H   0  0  0  0  0  0  0  0  0  0  0  0
   10.7142  -12.5610   14.6698 H   0  0  0  0  0  0  0  0  0  0  0  0
   10.0194   -9.7247   16.1791 H   0  0  0  0  0  0  0  0  0  0  0  0
   11.2824  -10.8201   16.6458 H   0  0  0  0  0  0  0  0  0  0  0  0
   13.2271   -9.2787   15.6624 H   0  0  0  0  0  0  0  0  0  0  0  0
   11.8424   -4.7572   17.0334 H   0  0  0  0  0  0  0  0  0  0  0  0
   12.8885   -2.6954   17.5827 H   0  0  0  0  0  0  0  0  0  0  0  0
   15.5082   -1.2030   17.4481 H   0  0  0  0  0  0  0  0  0  0  0  0
   17.8370   -1.9548   16.2534 H   0  0  0  0  0  0  0  0  0  0  0  0
   17.4402   -4.2263   15.2579 H   0  0  0  0  0  0  0  0  0  0  0  0
   15.4720   -6.1282   15.1188 H   0  0  0  0  0  0  0  0  0  0  0  0
    5.7917  -13.1597   13.8500 H   0  0  0  0  0  0  0  0  0  0  0  0
    6.2387  -14.0386   12.3747 H   0  0  0  0  0  0  0  0  0  0  0  0
    6.0606  -16.3992   15.7397 H   0  0  0  0  0  0  0  0  0  0  0  0
    4.7741  -18.7938   15.1859 H   0  0  0  0  0  0  0  0  0  0  0  0
    3.7745  -18.4640   12.7077 H   0  0  0  0  0  0  0  0  0  0  0  0
  1  2  1  0
  2  3  1  0
  3  4  1  0
  4  5  1  0
  5  6  1  0
  6  7  1  0
  7  8  2  0
  7  9  1  0
  9 10  2  0
 10 11  1  0
 11 12  2  0
 12 13  1  0
 13 14  2  0
 14 15  1  0
 15 16  1  0
 16 17  2  0
  3 18  1  0
 18 19  2  0
 18 20  1  0
 20 21  1  0
 21 22  1  0
 22 23  2  0
 23 24  1  0
 24 25  2  0
 17  9  1  0
 25 21  1  0
 16 12  1  0
  1 26  1  0
  1 27  1  0
  1 28  1  0
  2 29  1  0
  2 30  1  0
  4 31  1  0
  4 32  1  0
  5 33  1  0
  5 34  1  0
  6 35  1  0
 10 36  1  0
 11 37  1  0
 13 38  1  0
 14 39  1  0
 15 40  1  0
 17 41  1  0
 20 42  1  0
 20 43  1  0
 22 44  1  0
 23 45  1  0
 24 46  1  0
M  END
>  <Energy>  (417) 
751.63095120352409

>  <compound_id>  (417) 
37142

>  <target_id>  (417) 
1

>  <reference_id>  (417) 
93

>  <inspiration_ids>  (417) 
[93, 112]

>  <energy_score>  (417) 
680.7941397633615

>  <distance_score>  (417) 
11.697670995742284

>  <path>  (417) 
/opt/xchem-fragalysis-2/maxwin/BulkDock/SCRATCH/511017/C37142-P93/C37142-P93.minimised.mol

>  <scratch_subdir>  (417) 
/opt/xchem-fragalysis-2/maxwin/BulkDock/SCRATCH/511017/C37142-P93

>  <fragmenstein_runtime>  (417) 
16.393789768218994

>  <fragmenstein_outcome>  (417) 
too moved

>  <fragmenstein_mode>  (417) 
expansion

>  <fragmenstein_error>  (417) 


$$$$
C37142-P112
     RDKit          3D

 46 48  0  0  0  0  0  0  0  0999 V2000
    4.0419   -9.9797   13.1365 C   0  0  0  0  0  0  0  0  0  0  0  0
    5.0169  -11.1143   13.4402 C   0  0  0  0  0  0  0  0  0  0  0  0
    4.5941  -11.8798   14.4369 N   0  0  0  0  0  0  0  0  0  0  0  0
    5.9739  -10.2106   14.7690 C   0  0  0  0  0  0  0  0  0  0  0  0
    7.9227   -9.1938   15.3464 C   0  0  0  0  0  0  0  0  0  0  0  0
    8.8530   -7.1935   15.0892 N   0  0  0  0  0  0  0  0  0  0  0  0
   10.6328   -6.3331   15.6254 C   0  0  0  0  0  0  0  0  0  0  0  0
   11.7064   -6.8363   16.1993 O   0  0  0  0  0  0  0  0  0  0  0  0
   10.9639   -4.5842   15.2269 C   0  0  0  0  0  0  0  0  0  0  0  0
   11.1950   -3.7883   14.1102 C   0  0  0  0  0  0  0  0  0  0  0  0
   11.9442   -2.5722   14.1041 C   0  0  0  0  0  0  0  0  0  0  0  0
   12.6970   -2.2128   15.2235 C   0  0  0  0  0  0  0  0  0  0  0  0
   13.6808   -1.2325   15.5193 C   0  0  0  0  0  0  0  0  0  0  0  0
   14.1714   -1.5052   16.7785 C   0  0  0  0  0  0  0  0  0  0  0  0
   13.4642   -2.5661   17.2826 N   0  0  0  0  0  0  0  0  0  0  0  0
   12.5633   -3.0055   16.3430 C   0  0  0  0  0  0  0  0  0  0  0  0
   11.6928   -4.1032   16.3647 C   0  0  0  0  0  0  0  0  0  0  0  0
    2.6058  -12.4051   15.0559 C   0  0  0  0  0  0  0  0  0  0  0  0
    1.6402  -11.9760   14.2795 O   0  0  0  0  0  0  0  0  0  0  0  0
    1.7502  -13.7459   16.5139 C   0  0  0  0  0  0  0  0  0  0  0  0
    0.1196  -13.8984   17.1411 N   0  0  0  0  0  0  0  0  0  0  0  0
   -1.1612  -13.6102   16.7707 C   0  0  0  0  0  0  0  0  0  0  0  0
   -2.0328  -13.5115   17.7638 C   0  0  0  0  0  0  0  0  0  0  0  0
   -1.5871  -14.6871   18.2795 C   0  0  0  0  0  0  0  0  0  0  0  0
   -0.2859  -14.9521   17.8693 N   0  0  0  0  0  0  0  0  0  0  0  0
    3.5064  -10.0054   12.1583 H   0  0  0  0  0  0  0  0  0  0  0  0
    3.2136  -10.2603   13.7825 H   0  0  0  0  0  0  0  0  0  0  0  0
    4.1388   -8.9643   13.5592 H   0  0  0  0  0  0  0  0  0  0  0  0
    5.9634  -11.5082   13.1374 H   0  0  0  0  0  0  0  0  0  0  0  0
    4.5170  -10.7472   14.3506 H   0  0  0  0  0  0  0  0  0  0  0  0
    5.5965   -9.3685   14.2427 H   0  0  0  0  0  0  0  0  0  0  0  0
    6.7052  -10.3400   13.8918 H   0  0  0  0  0  0  0  0  0  0  0  0
    8.3267   -9.7334   16.2190 H   0  0  0  0  0  0  0  0  0  0  0  0
    7.0979   -8.4783   15.1922 H   0  0  0  0  0  0  0  0  0  0  0  0
    8.2762   -6.5574   14.6029 H   0  0  0  0  0  0  0  0  0  0  0  0
   10.9502   -4.0739   13.1119 H   0  0  0  0  0  0  0  0  0  0  0  0
   12.0503   -2.0103   13.1813 H   0  0  0  0  0  0  0  0  0  0  0  0
   14.0414   -0.4568   14.8573 H   0  0  0  0  0  0  0  0  0  0  0  0
   14.9582   -1.0390   17.3555 H   0  0  0  0  0  0  0  0  0  0  0  0
   13.6251   -3.0225   18.1718 H   0  0  0  0  0  0  0  0  0  0  0  0
   11.6794   -4.6753   17.2788 H   0  0  0  0  0  0  0  0  0  0  0  0
    1.9713  -14.7805   16.2358 H   0  0  0  0  0  0  0  0  0  0  0  0
    2.2756  -13.9044   17.5219 H   0  0  0  0  0  0  0  0  0  0  0  0
   -1.3356  -13.8717   15.7700 H   0  0  0  0  0  0  0  0  0  0  0  0
   -2.8706  -12.8755   17.9271 H   0  0  0  0  0  0  0  0  0  0  0  0
   -1.9287  -15.3710   19.0473 H   0  0  0  0  0  0  0  0  0  0  0  0
  1  2  1  0
  2  3  1  0
  3  4  1  0
  4  5  1  0
  5  6  1  0
  6  7  1  0
  7  8  2  0
  7  9  1  0
  9 10  2  0
 10 11  1  0
 11 12  2  0
 12 13  1  0
 13 14  2  0
 14 15  1  0
 15 16  1  0
 16 17  2  0
  3 18  1  0
 18 19  2  0
 18 20  1  0
 20 21  1  0
 21 22  1  0
 22 23  2  0
 23 24  1  0
 24 25  2  0
 17  9  1  0
 25 21  1  0
 16 12  1  0
  1 26  1  0
  1 27  1  0
  1 28  1  0
  2 29  1  0
  2 30  1  0
  4 31  1  0
  4 32  1  0
  5 33  1  0
  5 34  1  0
  6 35  1  0
 10 36  1  0
 11 37  1  0
 13 38  1  0
 14 39  1  0
 15 40  1  0
 17 41  1  0
 20 42  1  0
 20 43  1  0
 22 44  1  0
 23 45  1  0
 24 46  1  0
M  END
>  <Energy>  (418) 
1762.0507839196787

>  <compound_id>  (418) 
37142

>  <target_id>  (418) 
1

>  <reference_id>  (418) 
112

>  <inspiration_ids>  (418) 
[93, 112]

>  <energy_score>  (418) 
1691.2139724795438

>  <distance_score>  (418) 
10.516885663820547

>  <path>  (418) 
/opt/xchem-fragalysis-2/maxwin/BulkDock/SCRATCH/511017/C37142-P112/C37142-P112.minimised.mol

>  <scratch_subdir>  (418) 
/opt/xchem-fragalysis-2/maxwin/BulkDock/SCRATCH/511017/C37142-P112

>  <fragmenstein_runtime>  (418) 
24.86667537689209

>  <fragmenstein_outcome>  (418) 
too moved

>  <fragmenstein_mode>  (418) 
expansion

>  <fragmenstein_error>  (418) 


$$$$
C37155-P93
     RDKit          3D

 50 52  0  0  0  0  0  0  0  0999 V2000
   -4.4916   -9.0831   11.8311 C   0  0  0  0  0  0  0  0  0  0  0  0
   -4.5291   -9.7348   13.2202 N   0  0  0  0  0  0  0  0  0  0  0  0
   -2.6055   -9.3545   14.0328 C   0  0  0  0  0  0  0  0  0  0  0  0
   -1.0729   -7.8571   13.9176 C   0  0  0  0  0  0  0  0  0  0  0  0
    0.3274   -7.1292   15.0182 C   0  0  0  0  0  0  0  0  0  0  0  0
    0.6251   -6.0876   16.2645 N   0  0  0  0  0  0  0  0  0  0  0  0
    1.1978   -7.0428   14.9360 C   0  0  0  0  0  0  0  0  0  0  0  0
    1.7559   -5.4913   16.8574 C   0  0  0  0  0  0  0  0  0  0  0  0
    2.3672   -6.0250   17.7817 O   0  0  0  0  0  0  0  0  0  0  0  0
    2.2361   -4.1113   16.4962 C   0  0  0  0  0  0  0  0  0  0  0  0
    2.1930   -3.5359   15.2181 C   0  0  0  0  0  0  0  0  0  0  0  0
    2.8032   -2.3031   14.9440 C   0  0  0  0  0  0  0  0  0  0  0  0
    3.4224   -1.5586   15.9523 C   0  0  0  0  0  0  0  0  0  0  0  0
    3.4386   -2.0684   17.2604 C   0  0  0  0  0  0  0  0  0  0  0  0
    3.9467   -1.5844   18.5020 C   0  0  0  0  0  0  0  0  0  0  0  0
    3.7493   -2.5637   19.4465 C   0  0  0  0  0  0  0  0  0  0  0  0
    3.1375   -3.6193   18.8235 N   0  0  0  0  0  0  0  0  0  0  0  0
    2.8928   -3.3336   17.4906 C   0  0  0  0  0  0  0  0  0  0  0  0
   -5.1226  -11.6010   12.6648 C   0  0  0  0  0  0  0  0  0  0  0  0
   -5.9644  -13.5921   12.5980 C   0  0  0  0  0  0  0  0  0  0  0  0
   -5.8206  -15.4719   13.0131 N   0  0  0  0  0  0  0  0  0  0  0  0
   -7.0567  -16.6318   13.7192 C   0  0  0  0  0  0  0  0  0  0  0  0
   -7.1631  -17.5429   12.7310 C   0  0  0  0  0  0  0  0  0  0  0  0
   -6.0169  -17.8156   13.3176 C   0  0  0  0  0  0  0  0  0  0  0  0
   -5.2389  -16.5959   13.8567 N   0  0  0  0  0  0  0  0  0  0  0  0
   -3.6342   -8.5331   11.4571 H   0  0  0  0  0  0  0  0  0  0  0  0
   -5.2744   -8.3231   11.7827 H   0  0  0  0  0  0  0  0  0  0  0  0
   -4.4170   -9.7845   11.0190 H   0  0  0  0  0  0  0  0  0  0  0  0
   -2.8705   -9.6607   15.0330 H   0  0  0  0  0  0  0  0  0  0  0  0
   -1.7584  -10.0307   13.7500 H   0  0  0  0  0  0  0  0  0  0  0  0
   -0.2926   -7.9897   13.1541 H   0  0  0  0  0  0  0  0  0  0  0  0
   -1.4349   -6.8612   13.5591 H   0  0  0  0  0  0  0  0  0  0  0  0
   -0.0119   -7.9183   15.8719 H   0  0  0  0  0  0  0  0  0  0  0  0
   -0.4529   -6.2317   14.8721 H   0  0  0  0  0  0  0  0  0  0  0  0
    2.0037   -7.4904   15.7163 H   0  0  0  0  0  0  0  0  0  0  0  0
    1.6339   -6.0444   14.4017 H   0  0  0  0  0  0  0  0  0  0  0  0
    2.1813   -7.3489   14.3585 H   0  0  0  0  0  0  0  0  0  0  0  0
    1.6940   -4.0380   14.3987 H   0  0  0  0  0  0  0  0  0  0  0  0
    2.7779   -1.9046   13.9319 H   0  0  0  0  0  0  0  0  0  0  0  0
    3.8804   -0.5991   15.7306 H   0  0  0  0  0  0  0  0  0  0  0  0
    4.4279   -0.6343   18.6729 H   0  0  0  0  0  0  0  0  0  0  0  0
    4.0078   -2.6139   20.4950 H   0  0  0  0  0  0  0  0  0  0  0  0
    2.8870   -4.5062   19.2473 H   0  0  0  0  0  0  0  0  0  0  0  0
   -5.3970  -11.2812   13.6625 H   0  0  0  0  0  0  0  0  0  0  0  0
   -6.1877  -11.6305   12.5603 H   0  0  0  0  0  0  0  0  0  0  0  0
   -6.9165  -13.4443   13.1038 H   0  0  0  0  0  0  0  0  0  0  0  0
   -6.2773  -13.6833   11.5664 H   0  0  0  0  0  0  0  0  0  0  0  0
   -7.6586  -16.1699   14.5381 H   0  0  0  0  0  0  0  0  0  0  0  0
   -7.8843  -18.1423   12.2025 H   0  0  0  0  0  0  0  0  0  0  0  0
   -5.6081  -18.8308   13.3946 H   0  0  0  0  0  0  0  0  0  0  0  0
  1  2  1  0
  2  3  1  0
  3  4  1  0
  4  5  1  0
  5  6  1  0
  6  7  1  0
  6  8  1  0
  8  9  2  0
  8 10  1  0
 10 11  2  0
 11 12  1  0
 12 13  2  0
 13 14  1  0
 14 15  1  0
 15 16  2  0
 16 17  1  0
 17 18  1  0
  2 19  1  0
 19 20  1  0
 20 21  1  0
 21 22  1  0
 22 23  2  0
 23 24  1  0
 24 25  2  0
 18 10  1  0
 25 21  1  0
 18 14  2  0
  1 26  1  0
  1 27  1  0
  1 28  1  0
  3 29  1  0
  3 30  1  0
  4 31  1  0
  4 32  1  0
  5 33  1  0
  5 34  1  0
  7 35  1  0
  7 36  1  0
  7 37  1  0
 11 38  1  0
 12 39  1  0
 13 40  1  0
 15 41  1  0
 16 42  1  0
 17 43  1  0
 19 44  1  0
 19 45  1  0
 20 46  1  0
 20 47  1  0
 22 48  1  0
 23 49  1  0
 24 50  1  0
M  END
>  <Energy>  (419) 
1576.2148236188775

>  <compound_id>  (419) 
37155

>  <target_id>  (419) 
1

>  <reference_id>  (419) 
93

>  <inspiration_ids>  (419) 
[93, 112]

>  <energy_score>  (419) 
1460.0579231720671

>  <distance_score>  (419) 
13.19346039827533

>  <path>  (419) 
/opt/xchem-fragalysis-2/maxwin/BulkDock/SCRATCH/511017/C37155-P93/C37155-P93.minimised.mol

>  <scratch_subdir>  (419) 
/opt/xchem-fragalysis-2/maxwin/BulkDock/SCRATCH/511017/C37155-P93

>  <fragmenstein_runtime>  (419) 
30.473483085632324

>  <fragmenstein_outcome>  (419) 
too moved

>  <fragmenstein_mode>  (419) 
expansion

>  <fragmenstein_error>  (419) 


$$$$
C37155-P112
     RDKit          3D

 50 52  0  0  0  0  0  0  0  0999 V2000
    3.4489  -10.3505   12.0792 C   0  0  0  0  0  0  0  0  0  0  0  0
    3.3152  -10.4917   13.5539 N   0  0  0  0  0  0  0  0  0  0  0  0
    4.9333   -9.4072   14.2155 C   0  0  0  0  0  0  0  0  0  0  0  0
    6.2027   -7.6614   14.4104 C   0  0  0  0  0  0  0  0  0  0  0  0
    7.9527   -6.3962   14.7971 C   0  0  0  0  0  0  0  0  0  0  0  0
    8.7704   -4.4682   14.6799 N   0  0  0  0  0  0  0  0  0  0  0  0
    7.8371   -2.8926   14.6936 C   0  0  0  0  0  0  0  0  0  0  0  0
   10.4394   -4.1472   14.5733 C   0  0  0  0  0  0  0  0  0  0  0  0
   11.0361   -4.0599   13.5002 O   0  0  0  0  0  0  0  0  0  0  0  0
   11.3627   -3.7874   15.7022 C   0  0  0  0  0  0  0  0  0  0  0  0
   11.0887   -2.3700   15.7961 C   0  0  0  0  0  0  0  0  0  0  0  0
   12.0145   -1.3364   15.8728 C   0  0  0  0  0  0  0  0  0  0  0  0
   13.3451   -1.6107   16.0330 C   0  0  0  0  0  0  0  0  0  0  0  0
   13.7305   -2.9440   15.9301 C   0  0  0  0  0  0  0  0  0  0  0  0
   15.0360   -3.4819   15.8295 C   0  0  0  0  0  0  0  0  0  0  0  0
   14.8787   -4.7835   15.4675 C   0  0  0  0  0  0  0  0  0  0  0  0
   13.5384   -5.0862   15.5386 N   0  0  0  0  0  0  0  0  0  0  0  0
   12.7728   -3.9694   15.7413 C   0  0  0  0  0  0  0  0  0  0  0  0
    1.9647  -12.0448   13.5615 C   0  0  0  0  0  0  0  0  0  0  0  0
    0.1167  -13.1461   13.4255 C   0  0  0  0  0  0  0  0  0  0  0  0
   -1.1503  -13.9507   14.8366 N   0  0  0  0  0  0  0  0  0  0  0  0
   -0.8891  -13.8927   16.5883 C   0  0  0  0  0  0  0  0  0  0  0  0
   -2.0733  -13.6766   17.2356 C   0  0  0  0  0  0  0  0  0  0  0  0
   -3.0370  -14.3459   16.4342 C   0  0  0  0  0  0  0  0  0  0  0  0
   -2.7166  -14.7458   15.0655 N   0  0  0  0  0  0  0  0  0  0  0  0
    2.4921  -10.1184   11.6018 H   0  0  0  0  0  0  0  0  0  0  0  0
    3.8795  -11.2583   11.6471 H   0  0  0  0  0  0  0  0  0  0  0  0
    4.1146   -9.5164   11.8366 H   0  0  0  0  0  0  0  0  0  0  0  0
    5.6816  -10.1302   13.8653 H   0  0  0  0  0  0  0  0  0  0  0  0
    4.7305   -9.5905   15.2784 H   0  0  0  0  0  0  0  0  0  0  0  0
    6.0617   -7.4535   13.3383 H   0  0  0  0  0  0  0  0  0  0  0  0
    5.5058   -7.1377   15.0745 H   0  0  0  0  0  0  0  0  0  0  0  0
    8.2817   -6.6891   13.8260 H   0  0  0  0  0  0  0  0  0  0  0  0
    8.8279   -6.9952   15.1234 H   0  0  0  0  0  0  0  0  0  0  0  0
    6.8151   -2.7652   14.3111 H   0  0  0  0  0  0  0  0  0  0  0  0
    7.8996   -2.5019   15.6841 H   0  0  0  0  0  0  0  0  0  0  0  0
    8.4793   -2.1840   14.1828 H   0  0  0  0  0  0  0  0  0  0  0  0
   10.1062   -2.0005   15.5107 H   0  0  0  0  0  0  0  0  0  0  0  0
   11.6877   -0.3144   15.7018 H   0  0  0  0  0  0  0  0  0  0  0  0
   14.0803   -0.8144   16.0838 H   0  0  0  0  0  0  0  0  0  0  0  0
   15.9718   -2.9434   15.8875 H   0  0  0  0  0  0  0  0  0  0  0  0
   15.6074   -5.5292   15.1856 H   0  0  0  0  0  0  0  0  0  0  0  0
   13.1620   -6.0191   15.4581 H   0  0  0  0  0  0  0  0  0  0  0  0
    1.6982  -11.7277   12.5418 H   0  0  0  0  0  0  0  0  0  0  0  0
    2.7385  -12.7791   13.3471 H   0  0  0  0  0  0  0  0  0  0  0  0
    0.1091  -13.9587   12.6905 H   0  0  0  0  0  0  0  0  0  0  0  0
   -0.5681  -12.3535   13.1375 H   0  0  0  0  0  0  0  0  0  0  0  0
    0.1537  -13.8237   16.8499 H   0  0  0  0  0  0  0  0  0  0  0  0
   -2.1529  -13.3446   18.2550 H   0  0  0  0  0  0  0  0  0  0  0  0
   -3.7955  -14.9806   16.7796 H   0  0  0  0  0  0  0  0  0  0  0  0
  1  2  1  0
  2  3  1  0
  3  4  1  0
  4  5  1  0
  5  6  1  0
  6  7  1  0
  6  8  1  0
  8  9  2  0
  8 10  1  0
 10 11  2  0
 11 12  1  0
 12 13  2  0
 13 14  1  0
 14 15  1  0
 15 16  2  0
 16 17  1  0
 17 18  1  0
  2 19  1  0
 19 20  1  0
 20 21  1  0
 21 22  1  0
 22 23  2  0
 23 24  1  0
 24 25  2  0
 18 10  1  0
 25 21  1  0
 18 14  2  0
  1 26  1  0
  1 27  1  0
  1 28  1  0
  3 29  1  0
  3 30  1  0
  4 31  1  0
  4 32  1  0
  5 33  1  0
  5 34  1  0
  7 35  1  0
  7 36  1  0
  7 37  1  0
 11 38  1  0
 12 39  1  0
 13 40  1  0
 15 41  1  0
 16 42  1  0
 17 43  1  0
 19 44  1  0
 19 45  1  0
 20 46  1  0
 20 47  1  0
 22 48  1  0
 23 49  1  0
 24 50  1  0
M  END
>  <Energy>  (420) 
1303.3238160519384

>  <compound_id>  (420) 
37155

>  <target_id>  (420) 
1

>  <reference_id>  (420) 
112

>  <inspiration_ids>  (420) 
[93, 112]

>  <energy_score>  (420) 
1187.1669156051257

>  <distance_score>  (420) 
13.532720213001872

>  <path>  (420) 
/opt/xchem-fragalysis-2/maxwin/BulkDock/SCRATCH/511017/C37155-P112/C37155-P112.minimised.mol

>  <scratch_subdir>  (420) 
/opt/xchem-fragalysis-2/maxwin/BulkDock/SCRATCH/511017/C37155-P112

>  <fragmenstein_runtime>  (420) 
16.45743179321289

>  <fragmenstein_outcome>  (420) 
too moved

>  <fragmenstein_mode>  (420) 
expansion

>  <fragmenstein_error>  (420) 


$$$$
C37156-P93
     RDKit          3D

 47 49  0  0  0  0  0  0  0  0999 V2000
    8.1014   -8.6680   20.1273 C   0  0  0  0  0  0  0  0  0  0  0  0
    6.7634   -7.4169   19.8088 C   0  0  0  0  0  0  0  0  0  0  0  0
    5.4505   -7.5991   18.7788 C   0  0  0  0  0  0  0  0  0  0  0  0
    4.7506   -6.9447   17.7731 N   0  0  0  0  0  0  0  0  0  0  0  0
    3.0003   -7.9558   17.8154 C   0  0  0  0  0  0  0  0  0  0  0  0
    1.2623   -8.4084   18.5109 C   0  0  0  0  0  0  0  0  0  0  0  0
    0.9939   -8.4328   19.7116 O   0  0  0  0  0  0  0  0  0  0  0  0
    0.0781   -8.6439   17.7447 O   0  0  0  0  0  0  0  0  0  0  0  0
   -1.4989   -9.2196   18.3940 C   0  0  0  0  0  0  0  0  0  0  0  0
   -2.1299  -10.9249   18.5829 C   0  0  0  0  0  0  0  0  0  0  0  0
   -3.7042  -11.4613   18.6185 C   0  0  0  0  0  0  0  0  0  0  0  0
   -3.9385  -13.1098   18.5130 C   0  0  0  0  0  0  0  0  0  0  0  0
   -5.4018  -13.6431   18.1916 C   0  0  0  0  0  0  0  0  0  0  0  0
   -5.6006  -15.0542   17.8198 N   0  0  0  0  0  0  0  0  0  0  0  0
   -4.8805  -15.8088   16.9272 C   0  0  0  0  0  0  0  0  0  0  0  0
   -5.5459  -17.0078   16.7817 C   0  0  0  0  0  0  0  0  0  0  0  0
   -6.6755  -16.8868   17.6056 C   0  0  0  0  0  0  0  0  0  0  0  0
   -6.7259  -15.7033   18.2275 N   0  0  0  0  0  0  0  0  0  0  0  0
    6.0991   -5.8358   18.1427 C   0  0  0  0  0  0  0  0  0  0  0  0
    7.4950   -6.3566   18.1739 C   0  0  0  0  0  0  0  0  0  0  0  0
    9.4173   -6.2017   19.0115 C   0  0  0  0  0  0  0  0  0  0  0  0
    9.8228   -5.3117   20.0182 C   0  0  0  0  0  0  0  0  0  0  0  0
    8.2290   -4.3022   20.2174 C   0  0  0  0  0  0  0  0  0  0  0  0
    6.7910   -5.3875   19.6291 C   0  0  0  0  0  0  0  0  0  0  0  0
    8.5497   -8.5365   21.1239 H   0  0  0  0  0  0  0  0  0  0  0  0
    7.7335   -9.6902   19.9572 H   0  0  0  0  0  0  0  0  0  0  0  0
    8.9868   -8.7197   19.5174 H   0  0  0  0  0  0  0  0  0  0  0  0
    4.7221   -6.8770   19.0708 H   0  0  0  0  0  0  0  0  0  0  0  0
    3.4505   -8.9181   18.0952 H   0  0  0  0  0  0  0  0  0  0  0  0
    2.7646   -7.2133   18.5574 H   0  0  0  0  0  0  0  0  0  0  0  0
   -1.5142   -8.7607   19.3854 H   0  0  0  0  0  0  0  0  0  0  0  0
   -2.2226   -8.7371   17.7486 H   0  0  0  0  0  0  0  0  0  0  0  0
   -1.7890  -11.1950   19.5918 H   0  0  0  0  0  0  0  0  0  0  0  0
   -1.5925  -11.5784   17.9149 H   0  0  0  0  0  0  0  0  0  0  0  0
   -4.2686  -10.9209   17.8549 H   0  0  0  0  0  0  0  0  0  0  0  0
   -4.1266  -11.1455   19.5808 H   0  0  0  0  0  0  0  0  0  0  0  0
   -3.6260  -13.5328   19.4764 H   0  0  0  0  0  0  0  0  0  0  0  0
   -3.2272  -13.5061   17.7794 H   0  0  0  0  0  0  0  0  0  0  0  0
   -6.0216  -13.4651   19.0790 H   0  0  0  0  0  0  0  0  0  0  0  0
   -5.8411  -13.0663   17.3714 H   0  0  0  0  0  0  0  0  0  0  0  0
   -3.9704  -15.4369   16.4784 H   0  0  0  0  0  0  0  0  0  0  0  0
   -5.2565  -17.8437   16.1613 H   0  0  0  0  0  0  0  0  0  0  0  0
   -7.4669  -17.6050   17.7756 H   0  0  0  0  0  0  0  0  0  0  0  0
    7.7548   -6.6115   19.0816 H   0  0  0  0  0  0  0  0  0  0  0  0
   10.2856   -5.8045   18.3880 H   0  0  0  0  0  0  0  0  0  0  0  0
   10.8506   -5.3971   20.3879 H   0  0  0  0  0  0  0  0  0  0  0  0
    7.9823   -3.8725   21.2018 H   0  0  0  0  0  0  0  0  0  0  0  0
  1  2  1  0
  2  3  2  0
  3  4  1  0
  4  5  1  0
  5  6  1  0
  6  7  2  0
  6  8  1  0
  8  9  1  0
  9 10  1  0
 10 11  1  0
 11 12  1  0
 12 13  1  0
 13 14  1  0
 14 15  1  0
 15 16  2  0
 16 17  1  0
 17 18  2  0
  4 19  1  0
 19 20  2  0
 20 21  1  0
 21 22  2  0
 22 23  1  0
 23 24  2  0
 24  2  1  0
 18 14  1  0
 24 19  1  0
  1 25  1  0
  1 26  1  0
  1 27  1  0
  3 28  1  0
  5 29  1  0
  5 30  1  0
  9 31  1  0
  9 32  1  0
 10 33  1  0
 10 34  1  0
 11 35  1  0
 11 36  1  0
 12 37  1  0
 12 38  1  0
 13 39  1  0
 13 40  1  0
 15 41  1  0
 16 42  1  0
 17 43  1  0
 20 44  1  0
 21 45  1  0
 22 46  1  0
 23 47  1  0
M  END
>  <Energy>  (421) 
1493.6327074932396

>  <compound_id>  (421) 
37156

>  <target_id>  (421) 
1

>  <reference_id>  (421) 
93

>  <inspiration_ids>  (421) 
[93, 112]

>  <energy_score>  (421) 
1424.1276761624335

>  <distance_score>  (421) 
13.056755389526801

>  <path>  (421) 
/opt/xchem-fragalysis-2/maxwin/BulkDock/SCRATCH/511017/C37156-P93/C37156-P93.minimised.mol

>  <scratch_subdir>  (421) 
/opt/xchem-fragalysis-2/maxwin/BulkDock/SCRATCH/511017/C37156-P93

>  <fragmenstein_runtime>  (421) 
28.11139178276062

>  <fragmenstein_outcome>  (421) 
too moved

>  <fragmenstein_mode>  (421) 
expansion

>  <fragmenstein_error>  (421) 


$$$$
C37156-P112
     RDKit          3D

 47 49  0  0  0  0  0  0  0  0999 V2000
   -8.1621  -12.1949   18.2014 C   0  0  0  0  0  0  0  0  0  0  0  0
   -8.0890  -13.4898   17.4751 C   0  0  0  0  0  0  0  0  0  0  0  0
   -9.1628  -14.1968   16.9534 C   0  0  0  0  0  0  0  0  0  0  0  0
   -8.7551  -15.4010   16.4033 N   0  0  0  0  0  0  0  0  0  0  0  0
   -9.7464  -16.4607   15.7410 C   0  0  0  0  0  0  0  0  0  0  0  0
  -11.3084  -16.7745   16.2686 C   0  0  0  0  0  0  0  0  0  0  0  0
  -11.7715  -16.3106   17.3056 O   0  0  0  0  0  0  0  0  0  0  0  0
  -12.0614  -17.6981   15.4766 O   0  0  0  0  0  0  0  0  0  0  0  0
  -13.6252  -18.7492   15.2956 C   0  0  0  0  0  0  0  0  0  0  0  0
  -14.0401  -20.3913   14.3676 C   0  0  0  0  0  0  0  0  0  0  0  0
  -15.1676  -21.6065   13.7776 C   0  0  0  0  0  0  0  0  0  0  0  0
  -14.4059  -22.9478   13.6363 C   0  0  0  0  0  0  0  0  0  0  0  0
  -15.1608  -24.1427   13.0827 C   0  0  0  0  0  0  0  0  0  0  0  0
  -14.2544  -25.2914   13.0786 N   0  0  0  0  0  0  0  0  0  0  0  0
  -13.4909  -25.7249   12.0309 C   0  0  0  0  0  0  0  0  0  0  0  0
  -12.6649  -26.7009   12.5377 C   0  0  0  0  0  0  0  0  0  0  0  0
  -13.0018  -26.7818   13.9005 C   0  0  0  0  0  0  0  0  0  0  0  0
  -13.9587  -25.9143   14.2408 N   0  0  0  0  0  0  0  0  0  0  0  0
   -7.3174  -15.3623   16.4367 C   0  0  0  0  0  0  0  0  0  0  0  0
   -6.3025  -16.1839   15.8987 C   0  0  0  0  0  0  0  0  0  0  0  0
   -4.9452  -15.9287   16.2163 C   0  0  0  0  0  0  0  0  0  0  0  0
   -4.5755  -14.9101   17.0848 C   0  0  0  0  0  0  0  0  0  0  0  0
   -5.5575  -14.0581   17.5789 C   0  0  0  0  0  0  0  0  0  0  0  0
   -6.9173  -14.2459   17.2126 C   0  0  0  0  0  0  0  0  0  0  0  0
   -7.8580  -12.3251   19.2449 H   0  0  0  0  0  0  0  0  0  0  0  0
   -9.1793  -11.7901   18.1920 H   0  0  0  0  0  0  0  0  0  0  0  0
   -7.5011  -11.4564   17.7362 H   0  0  0  0  0  0  0  0  0  0  0  0
  -10.2181  -13.9542   16.9707 H   0  0  0  0  0  0  0  0  0  0  0  0
   -9.1781  -17.3927   15.8182 H   0  0  0  0  0  0  0  0  0  0  0  0
   -9.8012  -16.1015   14.7084 H   0  0  0  0  0  0  0  0  0  0  0  0
  -13.1351  -18.9295   14.3758 H   0  0  0  0  0  0  0  0  0  0  0  0
  -13.3968  -19.1600   16.2525 H   0  0  0  0  0  0  0  0  0  0  0  0
  -13.2111  -20.5500   13.7049 H   0  0  0  0  0  0  0  0  0  0  0  0
  -14.7758  -19.7608   13.9177 H   0  0  0  0  0  0  0  0  0  0  0  0
  -15.6481  -21.3158   12.8480 H   0  0  0  0  0  0  0  0  0  0  0  0
  -16.0904  -21.7382   14.3531 H   0  0  0  0  0  0  0  0  0  0  0  0
  -13.5196  -22.8035   13.0124 H   0  0  0  0  0  0  0  0  0  0  0  0
  -14.0300  -23.2373   14.6220 H   0  0  0  0  0  0  0  0  0  0  0  0
  -16.0248  -24.4073   13.7007 H   0  0  0  0  0  0  0  0  0  0  0  0
  -15.4944  -23.9722   12.0544 H   0  0  0  0  0  0  0  0  0  0  0  0
  -13.5907  -25.3064   11.0393 H   0  0  0  0  0  0  0  0  0  0  0  0
  -11.9250  -27.2752   11.9986 H   0  0  0  0  0  0  0  0  0  0  0  0
  -12.5871  -27.4332   14.6589 H   0  0  0  0  0  0  0  0  0  0  0  0
   -6.5560  -17.0303   15.2672 H   0  0  0  0  0  0  0  0  0  0  0  0
   -4.1866  -16.5888   15.8042 H   0  0  0  0  0  0  0  0  0  0  0  0
   -3.5413  -14.7557   17.3718 H   0  0  0  0  0  0  0  0  0  0  0  0
   -5.2840  -13.2366   18.2361 H   0  0  0  0  0  0  0  0  0  0  0  0
  1  2  1  0
  2  3  2  0
  3  4  1  0
  4  5  1  0
  5  6  1  0
  6  7  2  0
  6  8  1  0
  8  9  1  0
  9 10  1  0
 10 11  1  0
 11 12  1  0
 12 13  1  0
 13 14  1  0
 14 15  1  0
 15 16  2  0
 16 17  1  0
 17 18  2  0
  4 19  1  0
 19 20  2  0
 20 21  1  0
 21 22  2  0
 22 23  1  0
 23 24  2  0
 24  2  1  0
 18 14  1  0
 24 19  1  0
  1 25  1  0
  1 26  1  0
  1 27  1  0
  3 28  1  0
  5 29  1  0
  5 30  1  0
  9 31  1  0
  9 32  1  0
 10 33  1  0
 10 34  1  0
 11 35  1  0
 11 36  1  0
 12 37  1  0
 12 38  1  0
 13 39  1  0
 13 40  1  0
 15 41  1  0
 16 42  1  0
 17 43  1  0
 20 44  1  0
 21 45  1  0
 22 46  1  0
 23 47  1  0
M  END
>  <Energy>  (422) 
301.84696867277887

>  <compound_id>  (422) 
37156

>  <target_id>  (422) 
1

>  <reference_id>  (422) 
112

>  <inspiration_ids>  (422) 
[93, 112]

>  <energy_score>  (422) 
232.34193734197544

>  <distance_score>  (422) 
16.56669325355642

>  <path>  (422) 
/opt/xchem-fragalysis-2/maxwin/BulkDock/SCRATCH/511017/C37156-P112/C37156-P112.minimised.mol

>  <scratch_subdir>  (422) 
/opt/xchem-fragalysis-2/maxwin/BulkDock/SCRATCH/511017/C37156-P112

>  <fragmenstein_runtime>  (422) 
22.93809700012207

>  <fragmenstein_outcome>  (422) 
too moved

>  <fragmenstein_mode>  (422) 
expansion

>  <fragmenstein_error>  (422) 


$$$$
C37157-P93
     RDKit          3D

 42 44  0  0  0  0  0  0  0  0999 V2000
   -1.5271  -13.8493   16.4069 C   0  0  0  0  0  0  0  0  0  0  0  0
   -1.1618  -13.9397   14.4093 C   0  0  0  0  0  0  0  0  0  0  0  0
   -0.6747  -12.0131   13.5889 C   0  0  0  0  0  0  0  0  0  0  0  0
   -1.1251   -9.9100   13.7025 C   0  0  0  0  0  0  0  0  0  0  0  0
   -2.1993   -9.5983   14.1032 O   0  0  0  0  0  0  0  0  0  0  0  0
   -0.0441   -8.2982   13.2051 N   0  0  0  0  0  0  0  0  0  0  0  0
    0.9299   -7.6768   14.6037 C   0  0  0  0  0  0  0  0  0  0  0  0
   -0.3998   -6.7481   13.1440 C   0  0  0  0  0  0  0  0  0  0  0  0
    0.8645   -5.8314   12.6577 C   0  0  0  0  0  0  0  0  0  0  0  0
    1.6792   -6.2350   11.5897 C   0  0  0  0  0  0  0  0  0  0  0  0
    2.7666   -5.4502   11.1386 C   0  0  0  0  0  0  0  0  0  0  0  0
    3.0708   -4.2246   11.7651 C   0  0  0  0  0  0  0  0  0  0  0  0
    4.0389   -3.1947   11.5419 C   0  0  0  0  0  0  0  0  0  0  0  0
    3.8954   -2.2610   12.5453 C   0  0  0  0  0  0  0  0  0  0  0  0
    2.8610   -2.6740   13.3501 N   0  0  0  0  0  0  0  0  0  0  0  0
    2.3080   -3.8498   12.8717 C   0  0  0  0  0  0  0  0  0  0  0  0
    1.1993   -4.6140   13.3195 C   0  0  0  0  0  0  0  0  0  0  0  0
   -2.4916  -15.2154   15.0931 N   0  0  0  0  0  0  0  0  0  0  0  0
   -3.1683  -16.6340   14.7833 C   0  0  0  0  0  0  0  0  0  0  0  0
   -3.9511  -17.2026   15.7342 C   0  0  0  0  0  0  0  0  0  0  0  0
   -4.0385  -16.2547   16.6541 C   0  0  0  0  0  0  0  0  0  0  0  0
   -3.2253  -15.2085   16.4087 N   0  0  0  0  0  0  0  0  0  0  0  0
   -1.6256  -12.8967   16.9979 H   0  0  0  0  0  0  0  0  0  0  0  0
   -0.6575  -13.7794   17.0610 H   0  0  0  0  0  0  0  0  0  0  0  0
   -2.5524  -13.5921   16.6474 H   0  0  0  0  0  0  0  0  0  0  0  0
   -0.4183  -14.4749   13.7798 H   0  0  0  0  0  0  0  0  0  0  0  0
    0.4102  -12.2788   13.7095 H   0  0  0  0  0  0  0  0  0  0  0  0
   -0.5214  -12.1333   12.4889 H   0  0  0  0  0  0  0  0  0  0  0  0
    2.0024   -7.7825   14.3916 H   0  0  0  0  0  0  0  0  0  0  0  0
    0.5555   -8.0664   15.5600 H   0  0  0  0  0  0  0  0  0  0  0  0
    0.8295   -6.6140   14.8461 H   0  0  0  0  0  0  0  0  0  0  0  0
   -0.8278   -6.3242   14.0459 H   0  0  0  0  0  0  0  0  0  0  0  0
   -1.1205   -6.5718   12.3470 H   0  0  0  0  0  0  0  0  0  0  0  0
    1.4670   -7.1722   11.0774 H   0  0  0  0  0  0  0  0  0  0  0  0
    3.3565   -5.7881   10.2906 H   0  0  0  0  0  0  0  0  0  0  0  0
    4.7821   -3.1670   10.7558 H   0  0  0  0  0  0  0  0  0  0  0  0
    4.4470   -1.3553   12.7621 H   0  0  0  0  0  0  0  0  0  0  0  0
    2.5304   -2.1775   14.1651 H   0  0  0  0  0  0  0  0  0  0  0  0
    0.6122   -4.2689   14.1660 H   0  0  0  0  0  0  0  0  0  0  0  0
   -2.6870  -17.4455   14.3038 H   0  0  0  0  0  0  0  0  0  0  0  0
   -3.9350  -18.2617   15.9400 H   0  0  0  0  0  0  0  0  0  0  0  0
   -4.5281  -16.3933   17.5974 H   0  0  0  0  0  0  0  0  0  0  0  0
  1  2  1  0
  2  3  1  0
  3  4  1  0
  4  5  2  0
  4  6  1  0
  6  7  1  0
  6  8  1  0
  8  9  1  0
  9 10  2  0
 10 11  1  0
 11 12  2  0
 12 13  1  0
 13 14  2  0
 14 15  1  0
 15 16  1  0
 16 17  2  0
  2 18  1  0
 18 19  1  0
 19 20  2  0
 20 21  1  0
 21 22  2  0
 17  9  1  0
 22 18  1  0
 16 12  1  0
  1 23  1  0
  1 24  1  0
  1 25  1  0
  2 26  1  0
  3 27  1  0
  3 28  1  0
  7 29  1  0
  7 30  1  0
  7 31  1  0
  8 32  1  0
  8 33  1  0
 10 34  1  0
 11 35  1  0
 13 36  1  0
 14 37  1  0
 15 38  1  0
 17 39  1  0
 19 40  1  0
 20 41  1  0
 21 42  1  0
M  END
>  <Energy>  (423) 
894.83636335435006

>  <compound_id>  (423) 
37157

>  <target_id>  (423) 
1

>  <reference_id>  (423) 
93

>  <inspiration_ids>  (423) 
[93, 112]

>  <energy_score>  (423) 
869.0322151214078

>  <distance_score>  (423) 
13.925493589435721

>  <path>  (423) 
/opt/xchem-fragalysis-2/maxwin/BulkDock/SCRATCH/511017/C37157-P93/C37157-P93.minimised.mol

>  <scratch_subdir>  (423) 
/opt/xchem-fragalysis-2/maxwin/BulkDock/SCRATCH/511017/C37157-P93

>  <fragmenstein_runtime>  (423) 
9.164577007293701

>  <fragmenstein_outcome>  (423) 
too moved

>  <fragmenstein_mode>  (423) 
expansion

>  <fragmenstein_error>  (423) 


$$$$
C37157-P112
     RDKit          3D

 42 44  0  0  0  0  0  0  0  0999 V2000
    3.8688  -17.8221    8.5836 C   0  0  0  0  0  0  0  0  0  0  0  0
    3.6092  -17.4618   10.0591 C   0  0  0  0  0  0  0  0  0  0  0  0
    4.1940  -16.0081   10.3716 C   0  0  0  0  0  0  0  0  0  0  0  0
    5.7913  -15.9925   10.4002 C   0  0  0  0  0  0  0  0  0  0  0  0
    6.3234  -17.0712   10.2896 O   0  0  0  0  0  0  0  0  0  0  0  0
    6.3759  -14.6538   10.5100 N   0  0  0  0  0  0  0  0  0  0  0  0
    6.5936  -14.3043   11.9398 C   0  0  0  0  0  0  0  0  0  0  0  0
    7.8535  -14.1839   10.4041 C   0  0  0  0  0  0  0  0  0  0  0  0
    8.4799  -12.7620   10.5866 C   0  0  0  0  0  0  0  0  0  0  0  0
    8.0602  -11.6589    9.8347 C   0  0  0  0  0  0  0  0  0  0  0  0
    8.8724  -10.5088    9.6984 C   0  0  0  0  0  0  0  0  0  0  0  0
   10.1431  -10.4597   10.3117 C   0  0  0  0  0  0  0  0  0  0  0  0
   11.2444   -9.5560   10.2669 C   0  0  0  0  0  0  0  0  0  0  0  0
   12.2264  -10.0526   11.0937 C   0  0  0  0  0  0  0  0  0  0  0  0
   11.7474  -11.1961   11.6759 N   0  0  0  0  0  0  0  0  0  0  0  0
   10.5017  -11.5024   11.1643 C   0  0  0  0  0  0  0  0  0  0  0  0
    9.6889  -12.6442   11.3308 C   0  0  0  0  0  0  0  0  0  0  0  0
    2.1877  -17.8062   10.3748 N   0  0  0  0  0  0  0  0  0  0  0  0
    1.7789  -18.9044   11.1239 C   0  0  0  0  0  0  0  0  0  0  0  0
    0.4555  -19.1401   10.8350 C   0  0  0  0  0  0  0  0  0  0  0  0
    0.1354  -18.1527    9.8917 C   0  0  0  0  0  0  0  0  0  0  0  0
    1.1576  -17.3314    9.6207 N   0  0  0  0  0  0  0  0  0  0  0  0
    4.9310  -17.7696    8.3297 H   0  0  0  0  0  0  0  0  0  0  0  0
    3.3345  -17.1416    7.9111 H   0  0  0  0  0  0  0  0  0  0  0  0
    3.5310  -18.8411    8.3624 H   0  0  0  0  0  0  0  0  0  0  0  0
    4.1787  -18.1721   10.6738 H   0  0  0  0  0  0  0  0  0  0  0  0
    3.8303  -15.6786   11.3444 H   0  0  0  0  0  0  0  0  0  0  0  0
    3.8514  -15.2943    9.6149 H   0  0  0  0  0  0  0  0  0  0  0  0
    7.3515  -14.9032   12.4687 H   0  0  0  0  0  0  0  0  0  0  0  0
    5.6770  -14.6003   12.4443 H   0  0  0  0  0  0  0  0  0  0  0  0
    6.6484  -13.2256   12.1312 H   0  0  0  0  0  0  0  0  0  0  0  0
    8.0325  -14.3716    9.3315 H   0  0  0  0  0  0  0  0  0  0  0  0
    8.5158  -14.9548   10.8399 H   0  0  0  0  0  0  0  0  0  0  0  0
    7.1393  -11.7204    9.2558 H   0  0  0  0  0  0  0  0  0  0  0  0
    8.5507   -9.6990    9.0478 H   0  0  0  0  0  0  0  0  0  0  0  0
   11.3148   -8.6523    9.6729 H   0  0  0  0  0  0  0  0  0  0  0  0
   13.2256   -9.6958   11.2981 H   0  0  0  0  0  0  0  0  0  0  0  0
   12.2697  -11.7936   12.3015 H   0  0  0  0  0  0  0  0  0  0  0  0
   10.0508  -13.4821   11.9222 H   0  0  0  0  0  0  0  0  0  0  0  0
    2.4790  -19.4113   11.7728 H   0  0  0  0  0  0  0  0  0  0  0  0
   -0.1711  -19.9262   11.2294 H   0  0  0  0  0  0  0  0  0  0  0  0
   -0.8018  -17.9940    9.3757 H   0  0  0  0  0  0  0  0  0  0  0  0
  1  2  1  0
  2  3  1  0
  3  4  1  0
  4  5  2  0
  4  6  1  0
  6  7  1  0
  6  8  1  0
  8  9  1  0
  9 10  2  0
 10 11  1  0
 11 12  2  0
 12 13  1  0
 13 14  2  0
 14 15  1  0
 15 16  1  0
 16 17  2  0
  2 18  1  0
 18 19  1  0
 19 20  2  0
 20 21  1  0
 21 22  2  0
 17  9  1  0
 22 18  1  0
 16 12  1  0
  1 23  1  0
  1 24  1  0
  1 25  1  0
  2 26  1  0
  3 27  1  0
  3 28  1  0
  7 29  1  0
  7 30  1  0
  7 31  1  0
  8 32  1  0
  8 33  1  0
 10 34  1  0
 11 35  1  0
 13 36  1  0
 14 37  1  0
 15 38  1  0
 17 39  1  0
 19 40  1  0
 20 41  1  0
 21 42  1  0
M  END
>  <Energy>  (424) 
92.70482959034328

>  <compound_id>  (424) 
37157

>  <target_id>  (424) 
1

>  <reference_id>  (424) 
112

>  <inspiration_ids>  (424) 
[93, 112]

>  <energy_score>  (424) 
66.90068135740214

>  <distance_score>  (424) 
14.300097420044855

>  <path>  (424) 
/opt/xchem-fragalysis-2/maxwin/BulkDock/SCRATCH/511017/C37157-P112/C37157-P112.minimised.mol

>  <scratch_subdir>  (424) 
/opt/xchem-fragalysis-2/maxwin/BulkDock/SCRATCH/511017/C37157-P112

>  <fragmenstein_runtime>  (424) 
12.059053659439087

>  <fragmenstein_outcome>  (424) 
too moved

>  <fragmenstein_mode>  (424) 
expansion

>  <fragmenstein_error>  (424) 


$$$$
C37186-P93
     RDKit          3D

 50 53  0  0  0  0  0  0  0  0999 V2000
   -0.1857   -9.8260   10.2015 C   0  0  0  0  0  0  0  0  0  0  0  0
   -0.5510  -11.1820   10.3269 C   0  0  0  0  0  0  0  0  0  0  0  0
    0.3498  -12.2603   10.2060 C   0  0  0  0  0  0  0  0  0  0  0  0
   -0.1103  -13.7533   10.5857 C   0  0  0  0  0  0  0  0  0  0  0  0
   -1.4039  -14.5903   10.1930 N   0  0  0  0  0  0  0  0  0  0  0  0
   -1.1842  -15.9803   10.7434 C   0  0  0  0  0  0  0  0  0  0  0  0
   -1.9506  -17.1774   10.1539 C   0  0  0  0  0  0  0  0  0  0  0  0
   -3.4606  -17.1226    9.9435 C   0  0  0  0  0  0  0  0  0  0  0  0
   -4.2182  -16.3626   10.9531 N   0  0  0  0  0  0  0  0  0  0  0  0
   -5.6298  -16.9205   11.0481 C   0  0  0  0  0  0  0  0  0  0  0  0
   -6.5278  -16.8371    9.8007 C   0  0  0  0  0  0  0  0  0  0  0  0
   -7.8470  -17.6113    9.9831 C   0  0  0  0  0  0  0  0  0  0  0  0
   -8.2402  -17.7806   11.3421 O   0  0  0  0  0  0  0  0  0  0  0  0
   -7.9447  -16.6351   12.1301 C   0  0  0  0  0  0  0  0  0  0  0  0
   -6.4292  -16.4323   12.2795 C   0  0  0  0  0  0  0  0  0  0  0  0
   -4.0787  -14.9097   10.6084 C   0  0  0  0  0  0  0  0  0  0  0  0
   -2.6730  -14.1395   10.8402 C   0  0  0  0  0  0  0  0  0  0  0  0
    1.7240  -11.7856    9.9682 C   0  0  0  0  0  0  0  0  0  0  0  0
    2.9196  -12.4589    9.7364 N   0  0  0  0  0  0  0  0  0  0  0  0
    4.0105  -11.6199    9.7236 C   0  0  0  0  0  0  0  0  0  0  0  0
    3.5402  -10.3384    9.8098 C   0  0  0  0  0  0  0  0  0  0  0  0
    2.1157  -10.4272    9.9069 C   0  0  0  0  0  0  0  0  0  0  0  0
    1.1325   -9.4340    9.9825 C   0  0  0  0  0  0  0  0  0  0  0  0
   -0.9544   -9.0627   10.2974 H   0  0  0  0  0  0  0  0  0  0  0  0
   -1.5973  -11.3917   10.5268 H   0  0  0  0  0  0  0  0  0  0  0  0
    0.6925  -14.3441   10.1320 H   0  0  0  0  0  0  0  0  0  0  0  0
   -0.0097  -13.8175   11.6772 H   0  0  0  0  0  0  0  0  0  0  0  0
   -0.1265  -16.2397   10.5962 H   0  0  0  0  0  0  0  0  0  0  0  0
   -1.3158  -15.9741   11.8347 H   0  0  0  0  0  0  0  0  0  0  0  0
   -1.4954  -17.4250    9.1853 H   0  0  0  0  0  0  0  0  0  0  0  0
   -1.7342  -18.0349   10.8065 H   0  0  0  0  0  0  0  0  0  0  0  0
   -3.7935  -18.1694    9.9220 H   0  0  0  0  0  0  0  0  0  0  0  0
   -3.6680  -16.7416    8.9342 H   0  0  0  0  0  0  0  0  0  0  0  0
   -5.4885  -17.9954   11.2405 H   0  0  0  0  0  0  0  0  0  0  0  0
   -6.0227  -17.2093    8.9029 H   0  0  0  0  0  0  0  0  0  0  0  0
   -6.7628  -15.7831    9.6030 H   0  0  0  0  0  0  0  0  0  0  0  0
   -7.7520  -18.6123    9.5533 H   0  0  0  0  0  0  0  0  0  0  0  0
   -8.6555  -17.1092    9.4396 H   0  0  0  0  0  0  0  0  0  0  0  0
   -8.4100  -15.7531   11.6724 H   0  0  0  0  0  0  0  0  0  0  0  0
   -8.4030  -16.7582   13.1164 H   0  0  0  0  0  0  0  0  0  0  0  0
   -6.0754  -16.9877   13.1578 H   0  0  0  0  0  0  0  0  0  0  0  0
   -6.2462  -15.3756   12.4999 H   0  0  0  0  0  0  0  0  0  0  0  0
   -4.7977  -14.3505   11.2181 H   0  0  0  0  0  0  0  0  0  0  0  0
   -4.3803  -14.7413    9.5659 H   0  0  0  0  0  0  0  0  0  0  0  0
   -2.8617  -13.1146   10.5097 H   0  0  0  0  0  0  0  0  0  0  0  0
   -2.5202  -14.1141   11.9247 H   0  0  0  0  0  0  0  0  0  0  0  0
    2.9769  -13.4528    9.5802 H   0  0  0  0  0  0  0  0  0  0  0  0
    5.0111  -12.0149    9.6156 H   0  0  0  0  0  0  0  0  0  0  0  0
    4.1318   -9.4333    9.7914 H   0  0  0  0  0  0  0  0  0  0  0  0
    1.3956   -8.3833    9.9239 H   0  0  0  0  0  0  0  0  0  0  0  0
  1  2  2  0
  2  3  1  0
  3  4  1  0
  4  5  1  0
  5  6  1  0
  6  7  1  0
  7  8  1  0
  8  9  1  0
  9 10  1  0
 10 11  1  0
 11 12  1  0
 12 13  1  0
 13 14  1  0
 14 15  1  0
  9 16  1  0
 16 17  1  0
  3 18  2  0
 18 19  1  0
 19 20  1  0
 20 21  2  0
 21 22  1  0
 22 23  2  0
 23  1  1  0
 17  5  1  0
 22 18  1  0
 15 10  1  0
  1 24  1  0
  2 25  1  0
  4 26  1  0
  4 27  1  0
  6 28  1  0
  6 29  1  0
  7 30  1  0
  7 31  1  0
  8 32  1  0
  8 33  1  0
 10 34  1  0
 11 35  1  0
 11 36  1  0
 12 37  1  0
 12 38  1  0
 14 39  1  0
 14 40  1  0
 15 41  1  0
 15 42  1  0
 16 43  1  0
 16 44  1  0
 17 45  1  0
 17 46  1  0
 19 47  1  0
 20 48  1  0
 21 49  1  0
 23 50  1  0
M  END
>  <Energy>  (425) 
107.15269803456431

>  <compound_id>  (425) 
37186

>  <target_id>  (425) 
1

>  <reference_id>  (425) 
93

>  <inspiration_ids>  (425) 
[93, 112]

>  <energy_score>  (425) 
-3.762148949253003

>  <distance_score>  (425) 
13.87603384039648

>  <path>  (425) 
/opt/xchem-fragalysis-2/maxwin/BulkDock/SCRATCH/511017/C37186-P93/C37186-P93.minimised.mol

>  <scratch_subdir>  (425) 
/opt/xchem-fragalysis-2/maxwin/BulkDock/SCRATCH/511017/C37186-P93

>  <fragmenstein_runtime>  (425) 
11.25819182395935

>  <fragmenstein_outcome>  (425) 
too moved

>  <fragmenstein_mode>  (425) 
expansion

>  <fragmenstein_error>  (425) 


$$$$
C37186-P112
     RDKit          3D

 50 53  0  0  0  0  0  0  0  0999 V2000
    2.5359  -12.6956    8.6578 C   0  0  0  0  0  0  0  0  0  0  0  0
    1.2622  -13.0651    9.1461 C   0  0  0  0  0  0  0  0  0  0  0  0
    0.4227  -12.1941    9.8626 C   0  0  0  0  0  0  0  0  0  0  0  0
   -0.9394  -12.7038   10.4948 C   0  0  0  0  0  0  0  0  0  0  0  0
   -1.6096  -14.0584   10.1373 N   0  0  0  0  0  0  0  0  0  0  0  0
   -1.4764  -15.0858   11.1908 C   0  0  0  0  0  0  0  0  0  0  0  0
   -1.9242  -16.5294   10.8448 C   0  0  0  0  0  0  0  0  0  0  0  0
   -3.3255  -16.8049   10.2607 C   0  0  0  0  0  0  0  0  0  0  0  0
   -4.4111  -16.0521   10.8914 N   0  0  0  0  0  0  0  0  0  0  0  0
   -5.8049  -16.5942   10.6122 C   0  0  0  0  0  0  0  0  0  0  0  0
   -5.9726  -18.1422   10.6323 C   0  0  0  0  0  0  0  0  0  0  0  0
   -7.4293  -18.5671   10.4157 C   0  0  0  0  0  0  0  0  0  0  0  0
   -8.2966  -17.9938   11.3848 O   0  0  0  0  0  0  0  0  0  0  0  0
   -8.2536  -16.5720   11.3516 C   0  0  0  0  0  0  0  0  0  0  0  0
   -6.8420  -16.0384   11.6211 C   0  0  0  0  0  0  0  0  0  0  0  0
   -4.2620  -14.5814   10.5897 C   0  0  0  0  0  0  0  0  0  0  0  0
   -3.0450  -13.9618    9.7270 C   0  0  0  0  0  0  0  0  0  0  0  0
    0.9789  -10.8546    9.9548 C   0  0  0  0  0  0  0  0  0  0  0  0
    0.4448   -9.6777   10.4536 N   0  0  0  0  0  0  0  0  0  0  0  0
    1.2558   -8.5969   10.1791 C   0  0  0  0  0  0  0  0  0  0  0  0
    2.4426   -9.0754    9.6912 C   0  0  0  0  0  0  0  0  0  0  0  0
    2.2559  -10.4719    9.4809 C   0  0  0  0  0  0  0  0  0  0  0  0
    3.0701  -11.4254    8.8640 C   0  0  0  0  0  0  0  0  0  0  0  0
    3.1309  -13.4427    8.1359 H   0  0  0  0  0  0  0  0  0  0  0  0
    0.9335  -14.0931    8.9879 H   0  0  0  0  0  0  0  0  0  0  0  0
   -1.6569  -11.8975   10.3036 H   0  0  0  0  0  0  0  0  0  0  0  0
   -0.7472  -12.7033   11.5743 H   0  0  0  0  0  0  0  0  0  0  0  0
   -0.4136  -15.1483   11.4576 H   0  0  0  0  0  0  0  0  0  0  0  0
   -1.9940  -14.7617   12.1021 H   0  0  0  0  0  0  0  0  0  0  0  0
   -1.1904  -16.9518   10.1454 H   0  0  0  0  0  0  0  0  0  0  0  0
   -1.8272  -17.1164   11.7681 H   0  0  0  0  0  0  0  0  0  0  0  0
   -3.4688  -17.8806   10.4028 H   0  0  0  0  0  0  0  0  0  0  0  0
   -3.3242  -16.6473    9.1753 H   0  0  0  0  0  0  0  0  0  0  0  0
   -6.0852  -16.2648    9.6017 H   0  0  0  0  0  0  0  0  0  0  0  0
   -5.3697  -18.6086    9.8463 H   0  0  0  0  0  0  0  0  0  0  0  0
   -5.6266  -18.5252   11.6006 H   0  0  0  0  0  0  0  0  0  0  0  0
   -7.7727  -18.2927    9.4113 H   0  0  0  0  0  0  0  0  0  0  0  0
   -7.5096  -19.6523   10.5048 H   0  0  0  0  0  0  0  0  0  0  0  0
   -8.6267  -16.2192   10.3829 H   0  0  0  0  0  0  0  0  0  0  0  0
   -8.9387  -16.2017   12.1212 H   0  0  0  0  0  0  0  0  0  0  0  0
   -6.5401  -16.3316   12.6351 H   0  0  0  0  0  0  0  0  0  0  0  0
   -6.8662  -14.9436   11.5909 H   0  0  0  0  0  0  0  0  0  0  0  0
   -4.2730  -14.0634   11.5562 H   0  0  0  0  0  0  0  0  0  0  0  0
   -5.1646  -14.2424   10.0643 H   0  0  0  0  0  0  0  0  0  0  0  0
   -3.3063  -12.9113    9.5489 H   0  0  0  0  0  0  0  0  0  0  0  0
   -3.1040  -14.4227    8.7325 H   0  0  0  0  0  0  0  0  0  0  0  0
   -0.4668   -9.6092   10.8812 H   0  0  0  0  0  0  0  0  0  0  0  0
    0.9357   -7.5954   10.4295 H   0  0  0  0  0  0  0  0  0  0  0  0
    3.3118   -8.4882    9.4296 H   0  0  0  0  0  0  0  0  0  0  0  0
    4.0551  -11.1695    8.4895 H   0  0  0  0  0  0  0  0  0  0  0  0
  1  2  2  0
  2  3  1  0
  3  4  1  0
  4  5  1  0
  5  6  1  0
  6  7  1  0
  7  8  1  0
  8  9  1  0
  9 10  1  0
 10 11  1  0
 11 12  1  0
 12 13  1  0
 13 14  1  0
 14 15  1  0
  9 16  1  0
 16 17  1  0
  3 18  2  0
 18 19  1  0
 19 20  1  0
 20 21  2  0
 21 22  1  0
 22 23  2  0
 23  1  1  0
 17  5  1  0
 22 18  1  0
 15 10  1  0
  1 24  1  0
  2 25  1  0
  4 26  1  0
  4 27  1  0
  6 28  1  0
  6 29  1  0
  7 30  1  0
  7 31  1  0
  8 32  1  0
  8 33  1  0
 10 34  1  0
 11 35  1  0
 11 36  1  0
 12 37  1  0
 12 38  1  0
 14 39  1  0
 14 40  1  0
 15 41  1  0
 15 42  1  0
 16 43  1  0
 16 44  1  0
 17 45  1  0
 17 46  1  0
 19 47  1  0
 20 48  1  0
 21 49  1  0
 23 50  1  0
M  END
>  <Energy>  (426) 
93.949770250546237

>  <compound_id>  (426) 
37186

>  <target_id>  (426) 
1

>  <reference_id>  (426) 
112

>  <inspiration_ids>  (426) 
[93, 112]

>  <energy_score>  (426) 
-16.965076733274543

>  <distance_score>  (426) 
14.03387234776637

>  <path>  (426) 
/opt/xchem-fragalysis-2/maxwin/BulkDock/SCRATCH/511017/C37186-P112/C37186-P112.minimised.mol

>  <scratch_subdir>  (426) 
/opt/xchem-fragalysis-2/maxwin/BulkDock/SCRATCH/511017/C37186-P112

>  <fragmenstein_runtime>  (426) 
13.00187087059021

>  <fragmenstein_outcome>  (426) 
too moved

>  <fragmenstein_mode>  (426) 
expansion

>  <fragmenstein_error>  (426) 


$$$$
C37187-P93
     RDKit          3D

 50 53  0  0  0  0  0  0  0  0999 V2000
    0.1399  -17.5779   20.4983 C   0  0  0  0  0  0  0  0  0  0  0  0
   -1.2434  -17.5866   20.5412 C   0  0  0  0  0  0  0  0  0  0  0  0
   -1.7382  -18.5305   19.5715 C   0  0  0  0  0  0  0  0  0  0  0  0
   -3.0486  -19.0732   19.1980 C   0  0  0  0  0  0  0  0  0  0  0  0
   -3.2233  -20.0909   18.2080 C   0  0  0  0  0  0  0  0  0  0  0  0
   -4.6260  -20.6310   17.5388 C   0  0  0  0  0  0  0  0  0  0  0  0
   -5.9857  -21.4717   18.0043 N   0  0  0  0  0  0  0  0  0  0  0  0
   -7.1254  -21.3724   16.9416 C   0  0  0  0  0  0  0  0  0  0  0  0
   -7.9161  -22.4699   15.2495 C   0  0  0  0  0  0  0  0  0  0  0  0
   -8.8029  -23.6390   15.3239 C   0  0  0  0  0  0  0  0  0  0  0  0
   -8.1769  -24.6872   16.3658 N   0  0  0  0  0  0  0  0  0  0  0  0
   -8.9401  -26.1925   15.6013 C   0  0  0  0  0  0  0  0  0  0  0  0
   -8.0995  -27.4709   15.2651 C   0  0  0  0  0  0  0  0  0  0  0  0
   -8.8252  -28.3192   14.2162 C   0  0  0  0  0  0  0  0  0  0  0  0
  -10.1581  -28.6380   14.6059 O   0  0  0  0  0  0  0  0  0  0  0  0
  -10.9752  -27.4852   14.7205 C   0  0  0  0  0  0  0  0  0  0  0  0
  -10.4614  -26.5618   15.8192 C   0  0  0  0  0  0  0  0  0  0  0  0
   -6.8230  -24.3672   17.7421 C   0  0  0  0  0  0  0  0  0  0  0  0
   -5.8478  -22.8698   18.3594 C   0  0  0  0  0  0  0  0  0  0  0  0
   -2.0146  -20.4032   17.5203 C   0  0  0  0  0  0  0  0  0  0  0  0
   -0.7219  -19.8768   17.8299 C   0  0  0  0  0  0  0  0  0  0  0  0
   -0.6034  -18.9831   18.8951 C   0  0  0  0  0  0  0  0  0  0  0  0
    0.5164  -18.4089   19.4745 N   0  0  0  0  0  0  0  0  0  0  0  0
    0.8746  -17.0380   21.0792 H   0  0  0  0  0  0  0  0  0  0  0  0
   -1.8503  -17.0232   21.2374 H   0  0  0  0  0  0  0  0  0  0  0  0
   -3.9252  -18.6884   19.7148 H   0  0  0  0  0  0  0  0  0  0  0  0
   -5.0261  -19.6616   17.2080 H   0  0  0  0  0  0  0  0  0  0  0  0
   -4.2845  -21.1664   16.6524 H   0  0  0  0  0  0  0  0  0  0  0  0
   -7.9650  -20.9182   17.5263 H   0  0  0  0  0  0  0  0  0  0  0  0
   -6.5141  -20.5992   16.5704 H   0  0  0  0  0  0  0  0  0  0  0  0
   -8.8970  -21.9764   14.8931 H   0  0  0  0  0  0  0  0  0  0  0  0
   -7.5247  -22.2414   14.2372 H   0  0  0  0  0  0  0  0  0  0  0  0
   -9.0860  -24.0207   14.3310 H   0  0  0  0  0  0  0  0  0  0  0  0
   -9.8035  -23.2930   15.5822 H   0  0  0  0  0  0  0  0  0  0  0  0
   -9.0853  -25.8267   14.5749 H   0  0  0  0  0  0  0  0  0  0  0  0
   -7.0990  -27.2399   14.8980 H   0  0  0  0  0  0  0  0  0  0  0  0
   -7.9151  -28.0862   16.1389 H   0  0  0  0  0  0  0  0  0  0  0  0
   -8.2877  -29.2636   14.0804 H   0  0  0  0  0  0  0  0  0  0  0  0
   -8.8390  -27.8154   13.2421 H   0  0  0  0  0  0  0  0  0  0  0  0
  -11.0238  -26.9691   13.7541 H   0  0  0  0  0  0  0  0  0  0  0  0
  -11.9907  -27.8160   14.9620 H   0  0  0  0  0  0  0  0  0  0  0  0
  -11.1163  -25.6902   15.7839 H   0  0  0  0  0  0  0  0  0  0  0  0
  -10.6081  -27.0665   16.7730 H   0  0  0  0  0  0  0  0  0  0  0  0
   -7.2342  -24.6899   18.7160 H   0  0  0  0  0  0  0  0  0  0  0  0
   -6.1476  -25.2402   17.9503 H   0  0  0  0  0  0  0  0  0  0  0  0
   -5.9466  -22.9777   19.4525 H   0  0  0  0  0  0  0  0  0  0  0  0
   -4.7633  -22.9049   18.4349 H   0  0  0  0  0  0  0  0  0  0  0  0
   -2.0628  -21.1012   16.6809 H   0  0  0  0  0  0  0  0  0  0  0  0
    0.1449  -20.2055   17.2647 H   0  0  0  0  0  0  0  0  0  0  0  0
    1.4657  -18.5762   19.1714 H   0  0  0  0  0  0  0  0  0  0  0  0
  1  2  2  0
  2  3  1  0
  3  4  2  0
  4  5  1  0
  5  6  1  0
  6  7  1  0
  7  8  1  0
  8  9  1  0
  9 10  1  0
 10 11  1  0
 11 12  1  0
 12 13  1  0
 13 14  1  0
 14 15  1  0
 15 16  1  0
 16 17  1  0
 11 18  1  0
 18 19  1  0
  5 20  2  0
 20 21  1  0
 21 22  2  0
 22 23  1  0
 23  1  1  0
 22  3  1  0
 19  7  1  0
 17 12  1  0
  1 24  1  0
  2 25  1  0
  4 26  1  0
  6 27  1  0
  6 28  1  0
  8 29  1  0
  8 30  1  0
  9 31  1  0
  9 32  1  0
 10 33  1  0
 10 34  1  0
 12 35  1  0
 13 36  1  0
 13 37  1  0
 14 38  1  0
 14 39  1  0
 16 40  1  0
 16 41  1  0
 17 42  1  0
 17 43  1  0
 18 44  1  0
 18 45  1  0
 19 46  1  0
 19 47  1  0
 20 48  1  0
 21 49  1  0
 23 50  1  0
M  END
>  <Energy>  (427) 
522.1152981863388

>  <compound_id>  (427) 
37187

>  <target_id>  (427) 
1

>  <reference_id>  (427) 
93

>  <inspiration_ids>  (427) 
[93, 112]

>  <energy_score>  (427) 
410.4911365925489

>  <distance_score>  (427) 
15.840526347941992

>  <path>  (427) 
/opt/xchem-fragalysis-2/maxwin/BulkDock/SCRATCH/511017/C37187-P93/C37187-P93.minimised.mol

>  <scratch_subdir>  (427) 
/opt/xchem-fragalysis-2/maxwin/BulkDock/SCRATCH/511017/C37187-P93

>  <fragmenstein_runtime>  (427) 
16.151607751846313

>  <fragmenstein_outcome>  (427) 
too moved

>  <fragmenstein_mode>  (427) 
expansion

>  <fragmenstein_error>  (427) 


$$$$
C37187-P112
     RDKit          3D

 50 53  0  0  0  0  0  0  0  0999 V2000
   -0.8627   -7.2401   21.4503 C   0  0  0  0  0  0  0  0  0  0  0  0
   -2.2157   -7.4219   21.6853 C   0  0  0  0  0  0  0  0  0  0  0  0
   -2.7847   -8.1819   20.6098 C   0  0  0  0  0  0  0  0  0  0  0  0
   -4.0629   -8.7966   20.2791 C   0  0  0  0  0  0  0  0  0  0  0  0
   -4.2797   -9.5460   19.0750 C   0  0  0  0  0  0  0  0  0  0  0  0
   -5.6444  -10.1650   18.5636 C   0  0  0  0  0  0  0  0  0  0  0  0
   -6.3409  -11.4932   18.9328 N   0  0  0  0  0  0  0  0  0  0  0  0
   -5.5731  -12.7559   18.8998 C   0  0  0  0  0  0  0  0  0  0  0  0
   -5.8904  -13.9361   17.9183 C   0  0  0  0  0  0  0  0  0  0  0  0
   -7.2103  -14.7294   18.0307 C   0  0  0  0  0  0  0  0  0  0  0  0
   -8.3304  -13.9699   17.4760 N   0  0  0  0  0  0  0  0  0  0  0  0
   -9.5405  -14.7370   17.0663 C   0  0  0  0  0  0  0  0  0  0  0  0
  -10.2089  -15.6467   18.1085 C   0  0  0  0  0  0  0  0  0  0  0  0
  -11.4978  -16.2350   17.5236 C   0  0  0  0  0  0  0  0  0  0  0  0
  -11.2440  -16.9731   16.3331 O   0  0  0  0  0  0  0  0  0  0  0  0
  -10.6458  -16.1751   15.3159 C   0  0  0  0  0  0  0  0  0  0  0  0
   -9.3197  -15.5753   15.7859 C   0  0  0  0  0  0  0  0  0  0  0  0
   -8.5938  -12.7874   18.3351 C   0  0  0  0  0  0  0  0  0  0  0  0
   -7.5934  -11.5932   18.1200 C   0  0  0  0  0  0  0  0  0  0  0  0
   -3.2153   -9.5049   18.1700 C   0  0  0  0  0  0  0  0  0  0  0  0
   -1.9610   -8.9523   18.4797 C   0  0  0  0  0  0  0  0  0  0  0  0
   -1.7421   -8.3477   19.7138 C   0  0  0  0  0  0  0  0  0  0  0  0
   -0.5786   -7.8706   20.2750 N   0  0  0  0  0  0  0  0  0  0  0  0
   -0.0896   -6.7614   22.0355 H   0  0  0  0  0  0  0  0  0  0  0  0
   -2.7439   -7.0816   22.5666 H   0  0  0  0  0  0  0  0  0  0  0  0
   -4.8823   -8.6966   20.9883 H   0  0  0  0  0  0  0  0  0  0  0  0
   -6.3746   -9.3786   18.8030 H   0  0  0  0  0  0  0  0  0  0  0  0
   -5.5742  -10.1593   17.4670 H   0  0  0  0  0  0  0  0  0  0  0  0
   -5.6531  -13.1750   19.9113 H   0  0  0  0  0  0  0  0  0  0  0  0
   -4.5103  -12.5124   18.7875 H   0  0  0  0  0  0  0  0  0  0  0  0
   -5.0728  -14.6603   18.0350 H   0  0  0  0  0  0  0  0  0  0  0  0
   -5.8212  -13.5701   16.8951 H   0  0  0  0  0  0  0  0  0  0  0  0
   -7.3921  -15.0307   19.0693 H   0  0  0  0  0  0  0  0  0  0  0  0
   -7.0710  -15.6508   17.4544 H   0  0  0  0  0  0  0  0  0  0  0  0
  -10.2830  -13.9784   16.7785 H   0  0  0  0  0  0  0  0  0  0  0  0
  -10.4432  -15.0834   19.0183 H   0  0  0  0  0  0  0  0  0  0  0  0
   -9.5279  -16.4617   18.3819 H   0  0  0  0  0  0  0  0  0  0  0  0
  -11.9559  -16.9113   18.2520 H   0  0  0  0  0  0  0  0  0  0  0  0
  -12.2296  -15.4464   17.3109 H   0  0  0  0  0  0  0  0  0  0  0  0
  -10.4782  -16.8109   14.4432 H   0  0  0  0  0  0  0  0  0  0  0  0
  -11.3481  -15.3885   15.0155 H   0  0  0  0  0  0  0  0  0  0  0  0
   -8.6125  -16.3880   15.9879 H   0  0  0  0  0  0  0  0  0  0  0  0
   -8.8968  -14.9533   14.9887 H   0  0  0  0  0  0  0  0  0  0  0  0
   -8.6556  -13.0579   19.3968 H   0  0  0  0  0  0  0  0  0  0  0  0
   -9.5816  -12.3855   18.0737 H   0  0  0  0  0  0  0  0  0  0  0  0
   -8.1771  -10.6883   18.3382 H   0  0  0  0  0  0  0  0  0  0  0  0
   -7.3474  -11.5402   17.0503 H   0  0  0  0  0  0  0  0  0  0  0  0
   -3.3822   -9.8870   17.1719 H   0  0  0  0  0  0  0  0  0  0  0  0
   -1.1759   -8.9258   17.7493 H   0  0  0  0  0  0  0  0  0  0  0  0
    0.3359   -8.0422   19.8788 H   0  0  0  0  0  0  0  0  0  0  0  0
  1  2  2  0
  2  3  1  0
  3  4  2  0
  4  5  1  0
  5  6  1  0
  6  7  1  0
  7  8  1  0
  8  9  1  0
  9 10  1  0
 10 11  1  0
 11 12  1  0
 12 13  1  0
 13 14  1  0
 14 15  1  0
 15 16  1  0
 16 17  1  0
 11 18  1  0
 18 19  1  0
  5 20  2  0
 20 21  1  0
 21 22  2  0
 22 23  1  0
 23  1  1  0
 22  3  1  0
 19  7  1  0
 17 12  1  0
  1 24  1  0
  2 25  1  0
  4 26  1  0
  6 27  1  0
  6 28  1  0
  8 29  1  0
  8 30  1  0
  9 31  1  0
  9 32  1  0
 10 33  1  0
 10 34  1  0
 12 35  1  0
 13 36  1  0
 13 37  1  0
 14 38  1  0
 14 39  1  0
 16 40  1  0
 16 41  1  0
 17 42  1  0
 17 43  1  0
 18 44  1  0
 18 45  1  0
 19 46  1  0
 19 47  1  0
 20 48  1  0
 21 49  1  0
 23 50  1  0
M  END
>  <Energy>  (428) 
95.60651282874727

>  <compound_id>  (428) 
37187

>  <target_id>  (428) 
1

>  <reference_id>  (428) 
112

>  <inspiration_ids>  (428) 
[93, 112]

>  <energy_score>  (428) 
-16.017648765037393

>  <distance_score>  (428) 
15.04138158621025

>  <path>  (428) 
/opt/xchem-fragalysis-2/maxwin/BulkDock/SCRATCH/511017/C37187-P112/C37187-P112.minimised.mol

>  <scratch_subdir>  (428) 
/opt/xchem-fragalysis-2/maxwin/BulkDock/SCRATCH/511017/C37187-P112

>  <fragmenstein_runtime>  (428) 
13.983075857162476

>  <fragmenstein_outcome>  (428) 
too moved

>  <fragmenstein_mode>  (428) 
expansion

>  <fragmenstein_error>  (428) 


$$$$
C25404-P93
     RDKit          3D

 39 41  0  0  0  0  0  0  0  0999 V2000
    1.6184  -14.2093   17.6719 O   0  0  0  0  0  0  0  0  0  0  0  0
    1.0641  -13.7221   16.6765 C   0  0  0  0  0  0  0  0  0  0  0  0
   -1.0050  -14.0436   16.7181 C   0  0  0  0  0  0  0  0  0  0  0  0
   -2.5215  -14.1044   16.1197 C   0  0  0  0  0  0  0  0  0  0  0  0
   -3.2203  -15.4607   16.0165 C   0  0  0  0  0  0  0  0  0  0  0  0
   -3.4617  -16.2207   14.8871 C   0  0  0  0  0  0  0  0  0  0  0  0
   -4.1023  -17.3699   15.3480 C   0  0  0  0  0  0  0  0  0  0  0  0
   -4.3342  -17.3353   16.6603 N   0  0  0  0  0  0  0  0  0  0  0  0
   -3.7811  -16.1680   17.0487 N   0  0  0  0  0  0  0  0  0  0  0  0
    1.9374  -12.6535   15.3774 N   0  0  0  0  0  0  0  0  0  0  0  0
    3.9051  -11.8695   15.3080 C   0  0  0  0  0  0  0  0  0  0  0  0
    5.6520  -11.1116   14.3069 C   0  0  0  0  0  0  0  0  0  0  0  0
    7.6736  -10.4395   14.6913 C   0  0  0  0  0  0  0  0  0  0  0  0
    8.8095  -10.6242   16.0589 C   0  0  0  0  0  0  0  0  0  0  0  0
   10.5558  -10.3392   15.9111 C   0  0  0  0  0  0  0  0  0  0  0  0
   11.8575   -9.3902   15.9529 C   0  0  0  0  0  0  0  0  0  0  0  0
   12.2982   -7.6067   15.9758 C   0  0  0  0  0  0  0  0  0  0  0  0
   11.2181   -6.6581   15.7635 C   0  0  0  0  0  0  0  0  0  0  0  0
    9.7826   -7.6426   15.2876 C   0  0  0  0  0  0  0  0  0  0  0  0
    9.8100   -9.4192   15.3027 C   0  0  0  0  0  0  0  0  0  0  0  0
    9.1310  -10.7058   14.5342 N   0  0  0  0  0  0  0  0  0  0  0  0
   -1.2217  -14.1681   17.7828 H   0  0  0  0  0  0  0  0  0  0  0  0
   -0.9808  -14.8300   15.9986 H   0  0  0  0  0  0  0  0  0  0  0  0
   -2.5000  -13.8123   15.0640 H   0  0  0  0  0  0  0  0  0  0  0  0
   -3.1623  -13.4141   16.6802 H   0  0  0  0  0  0  0  0  0  0  0  0
   -3.1704  -15.9890   13.8725 H   0  0  0  0  0  0  0  0  0  0  0  0
   -4.4020  -18.2134   14.7522 H   0  0  0  0  0  0  0  0  0  0  0  0
   -3.8079  -15.9284   18.0343 H   0  0  0  0  0  0  0  0  0  0  0  0
    1.2881  -12.4481   14.6177 H   0  0  0  0  0  0  0  0  0  0  0  0
    3.5944  -10.9838   14.7275 H   0  0  0  0  0  0  0  0  0  0  0  0
    3.8225  -11.4485   16.3118 H   0  0  0  0  0  0  0  0  0  0  0  0
    5.7840  -11.8639   13.5245 H   0  0  0  0  0  0  0  0  0  0  0  0
    5.1843  -10.2247   13.9135 H   0  0  0  0  0  0  0  0  0  0  0  0
    8.4767  -10.9933   17.0162 H   0  0  0  0  0  0  0  0  0  0  0  0
   12.6986  -10.0550   15.6951 H   0  0  0  0  0  0  0  0  0  0  0  0
   13.2606   -7.1955   15.7360 H   0  0  0  0  0  0  0  0  0  0  0  0
   11.3231   -5.5835   15.8620 H   0  0  0  0  0  0  0  0  0  0  0  0
    8.8963   -7.1828   14.8168 H   0  0  0  0  0  0  0  0  0  0  0  0
    9.6017  -11.5796   14.2764 H   0  0  0  0  0  0  0  0  0  0  0  0
  1  2  2  0
  2  3  1  0
  3  4  1  0
  4  5  1  0
  5  6  2  0
  6  7  1  0
  7  8  2  0
  8  9  1  0
  2 10  1  0
 10 11  1  0
 11 12  1  0
 12 13  1  0
 13 14  2  0
 14 15  1  0
 15 16  2  0
 16 17  1  0
 17 18  2  0
 18 19  1  0
 19 20  2  0
 20 21  1  0
  9  5  1  0
 21 13  1  0
 20 15  1  0
  3 22  1  0
  3 23  1  0
  4 24  1  0
  4 25  1  0
  6 26  1  0
  7 27  1  0
  9 28  1  0
 10 29  1  0
 11 30  1  0
 11 31  1  0
 12 32  1  0
 12 33  1  0
 14 34  1  0
 16 35  1  0
 17 36  1  0
 18 37  1  0
 19 38  1  0
 21 39  1  0
M  END
>  <Energy>  (429) 
1141.6794274652434

>  <compound_id>  (429) 
25404

>  <target_id>  (429) 
1

>  <reference_id>  (429) 
93

>  <inspiration_ids>  (429) 
[93, 112]

>  <energy_score>  (429) 
1109.680181224875

>  <distance_score>  (429) 
10.893012131244992

>  <path>  (429) 
/opt/xchem-fragalysis-2/maxwin/BulkDock/SCRATCH/511017/C25404-P93/C25404-P93.minimised.mol

>  <scratch_subdir>  (429) 
/opt/xchem-fragalysis-2/maxwin/BulkDock/SCRATCH/511017/C25404-P93

>  <fragmenstein_runtime>  (429) 
13.65081262588501

>  <fragmenstein_outcome>  (429) 
too moved

>  <fragmenstein_mode>  (429) 
expansion

>  <fragmenstein_error>  (429) 


$$$$
C25404-P112
     RDKit          3D

 39 41  0  0  0  0  0  0  0  0999 V2000
   -0.2480   -9.1211   11.4467 O   0  0  0  0  0  0  0  0  0  0  0  0
    0.5334  -10.0546   11.3861 C   0  0  0  0  0  0  0  0  0  0  0  0
   -0.2169  -11.5663   11.4536 C   0  0  0  0  0  0  0  0  0  0  0  0
   -1.8024  -11.7609   11.3774 C   0  0  0  0  0  0  0  0  0  0  0  0
   -2.4379  -13.1420   11.6700 C   0  0  0  0  0  0  0  0  0  0  0  0
   -2.4874  -13.9570   12.7876 C   0  0  0  0  0  0  0  0  0  0  0  0
   -3.3432  -15.0348   12.4696 C   0  0  0  0  0  0  0  0  0  0  0  0
   -3.8502  -14.9144   11.2446 N   0  0  0  0  0  0  0  0  0  0  0  0
   -3.2866  -13.7757   10.7813 N   0  0  0  0  0  0  0  0  0  0  0  0
    2.1260  -10.0660   11.3827 N   0  0  0  0  0  0  0  0  0  0  0  0
    3.4097   -8.6151   11.6275 C   0  0  0  0  0  0  0  0  0  0  0  0
    4.1790   -7.8656   13.3831 C   0  0  0  0  0  0  0  0  0  0  0  0
    5.7730   -7.1091   14.1309 C   0  0  0  0  0  0  0  0  0  0  0  0
    6.2470   -6.2605   15.6032 C   0  0  0  0  0  0  0  0  0  0  0  0
    7.5735   -5.5411   15.4652 C   0  0  0  0  0  0  0  0  0  0  0  0
    8.6085   -3.9774   15.1783 C   0  0  0  0  0  0  0  0  0  0  0  0
   10.2844   -4.0414   14.9819 C   0  0  0  0  0  0  0  0  0  0  0  0
   10.9149   -5.4578   15.1425 C   0  0  0  0  0  0  0  0  0  0  0  0
    9.7489   -6.9010   15.1391 C   0  0  0  0  0  0  0  0  0  0  0  0
    8.1819   -6.5800   14.7565 C   0  0  0  0  0  0  0  0  0  0  0  0
    6.9603   -7.5577   14.3076 N   0  0  0  0  0  0  0  0  0  0  0  0
    0.4205  -12.4155   11.2355 H   0  0  0  0  0  0  0  0  0  0  0  0
   -0.1299  -11.7644   12.5288 H   0  0  0  0  0  0  0  0  0  0  0  0
   -2.2344  -11.0729   12.1193 H   0  0  0  0  0  0  0  0  0  0  0  0
   -2.1799  -11.3904   10.4222 H   0  0  0  0  0  0  0  0  0  0  0  0
   -1.9858  -13.7815   13.7224 H   0  0  0  0  0  0  0  0  0  0  0  0
   -3.6250  -15.8815   13.0818 H   0  0  0  0  0  0  0  0  0  0  0  0
   -3.5280  -13.4687    9.8457 H   0  0  0  0  0  0  0  0  0  0  0  0
    2.4518  -10.9981   11.2381 H   0  0  0  0  0  0  0  0  0  0  0  0
    3.5196   -9.5561   12.2563 H   0  0  0  0  0  0  0  0  0  0  0  0
    2.7582   -7.7209   11.4362 H   0  0  0  0  0  0  0  0  0  0  0  0
    4.1749   -7.0039   12.7284 H   0  0  0  0  0  0  0  0  0  0  0  0
    4.5371   -8.8489   13.6765 H   0  0  0  0  0  0  0  0  0  0  0  0
    5.5156   -5.9861   16.3728 H   0  0  0  0  0  0  0  0  0  0  0  0
    8.1038   -3.0025   15.2049 H   0  0  0  0  0  0  0  0  0  0  0  0
   10.8627   -3.1274   14.9536 H   0  0  0  0  0  0  0  0  0  0  0  0
   11.9725   -5.5710   15.3769 H   0  0  0  0  0  0  0  0  0  0  0  0
    9.9328   -7.9789   15.2454 H   0  0  0  0  0  0  0  0  0  0  0  0
    7.2046   -8.3966   13.8427 H   0  0  0  0  0  0  0  0  0  0  0  0
  1  2  2  0
  2  3  1  0
  3  4  1  0
  4  5  1  0
  5  6  2  0
  6  7  1  0
  7  8  2  0
  8  9  1  0
  2 10  1  0
 10 11  1  0
 11 12  1  0
 12 13  1  0
 13 14  2  0
 14 15  1  0
 15 16  2  0
 16 17  1  0
 17 18  2  0
 18 19  1  0
 19 20  2  0
 20 21  1  0
  9  5  1  0
 21 13  1  0
 20 15  1  0
  3 22  1  0
  3 23  1  0
  4 24  1  0
  4 25  1  0
  6 26  1  0
  7 27  1  0
  9 28  1  0
 10 29  1  0
 11 30  1  0
 11 31  1  0
 12 32  1  0
 12 33  1  0
 14 34  1  0
 16 35  1  0
 17 36  1  0
 18 37  1  0
 19 38  1  0
 21 39  1  0
M  END
>  <Energy>  (430) 
674.67828149854722

>  <compound_id>  (430) 
25404

>  <target_id>  (430) 
1

>  <reference_id>  (430) 
112

>  <inspiration_ids>  (430) 
[93, 112]

>  <energy_score>  (430) 
642.679035258197

>  <distance_score>  (430) 
11.569626435503718

>  <path>  (430) 
/opt/xchem-fragalysis-2/maxwin/BulkDock/SCRATCH/511017/C25404-P112/C25404-P112.minimised.mol

>  <scratch_subdir>  (430) 
/opt/xchem-fragalysis-2/maxwin/BulkDock/SCRATCH/511017/C25404-P112

>  <fragmenstein_runtime>  (430) 
14.886086702346802

>  <fragmenstein_outcome>  (430) 
too moved

>  <fragmenstein_mode>  (430) 
expansion

>  <fragmenstein_error>  (430) 


$$$$
C25405-P93
     RDKit          3D

 40 43  0  0  0  0  0  0  0  0999 V2000
    3.4413  -10.6904   15.1352 O   0  0  0  0  0  0  0  0  0  0  0  0
    3.3647  -10.6355   13.9544 C   0  0  0  0  0  0  0  0  0  0  0  0
    4.3928  -10.0085   13.5114 C   0  0  0  0  0  0  0  0  0  0  0  0
    5.6847  -10.6442   13.7369 C   0  0  0  0  0  0  0  0  0  0  0  0
    6.9345   -9.4397   13.6273 N   0  0  0  0  0  0  0  0  0  0  0  0
    6.0688   -8.1914   14.2836 C   0  0  0  0  0  0  0  0  0  0  0  0
    6.1426   -6.8876   15.6928 C   0  0  0  0  0  0  0  0  0  0  0  0
    6.8978   -6.2595   16.4036 C   0  0  0  0  0  0  0  0  0  0  0  0
    7.1128   -6.8353   15.2508 C   0  0  0  0  0  0  0  0  0  0  0  0
    6.1168   -7.4397   13.6315 C   0  0  0  0  0  0  0  0  0  0  0  0
    4.8099   -8.1509   13.6522 C   0  0  0  0  0  0  0  0  0  0  0  0
    2.0373  -11.3324   12.7357 N   0  0  0  0  0  0  0  0  0  0  0  0
    0.5879  -12.4280   13.2303 C   0  0  0  0  0  0  0  0  0  0  0  0
    0.2430  -13.8489   12.9157 C   0  0  0  0  0  0  0  0  0  0  0  0
   -0.2446  -13.7419   11.5852 C   0  0  0  0  0  0  0  0  0  0  0  0
   -0.9542  -15.1201   10.9049 C   0  0  0  0  0  0  0  0  0  0  0  0
   -2.2116  -15.6031   10.4589 C   0  0  0  0  0  0  0  0  0  0  0  0
   -2.0220  -16.9256    9.9718 C   0  0  0  0  0  0  0  0  0  0  0  0
   -0.7758  -17.3360   10.1773 N   0  0  0  0  0  0  0  0  0  0  0  0
   -0.1626  -16.2756   10.7435 N   0  0  0  0  0  0  0  0  0  0  0  0
    0.1342  -12.0931   11.2528 C   0  0  0  0  0  0  0  0  0  0  0  0
    0.6938  -10.7115   12.1147 C   0  0  0  0  0  0  0  0  0  0  0  0
    5.9688  -11.6816   13.6545 H   0  0  0  0  0  0  0  0  0  0  0  0
    7.8306   -9.6929   14.0311 H   0  0  0  0  0  0  0  0  0  0  0  0
    5.0793   -6.5019   16.1142 H   0  0  0  0  0  0  0  0  0  0  0  0
    6.3361   -5.9087   17.2448 H   0  0  0  0  0  0  0  0  0  0  0  0
    8.2058   -6.7739   14.8845 H   0  0  0  0  0  0  0  0  0  0  0  0
    6.6737   -7.3452   12.6057 H   0  0  0  0  0  0  0  0  0  0  0  0
   -0.4135  -12.0226   13.4213 H   0  0  0  0  0  0  0  0  0  0  0  0
    1.0722  -12.5439   14.1797 H   0  0  0  0  0  0  0  0  0  0  0  0
    1.0047  -14.5923   12.8970 H   0  0  0  0  0  0  0  0  0  0  0  0
   -0.5015  -14.1245   13.6204 H   0  0  0  0  0  0  0  0  0  0  0  0
    0.6849  -14.1449   11.2589 H   0  0  0  0  0  0  0  0  0  0  0  0
   -3.1856  -15.1493   10.4961 H   0  0  0  0  0  0  0  0  0  0  0  0
   -2.7424  -17.6063    9.5352 H   0  0  0  0  0  0  0  0  0  0  0  0
    0.8111  -16.3822   11.0045 H   0  0  0  0  0  0  0  0  0  0  0  0
   -0.4416  -11.4481   10.6405 H   0  0  0  0  0  0  0  0  0  0  0  0
    1.1653  -12.3290   10.9873 H   0  0  0  0  0  0  0  0  0  0  0  0
   -0.3116  -10.3926   12.4238 H   0  0  0  0  0  0  0  0  0  0  0  0
    1.1569  -10.1960   11.2538 H   0  0  0  0  0  0  0  0  0  0  0  0
  1  2  2  0
  2  3  1  0
  3  4  2  0
  4  5  1  0
  5  6  1  0
  6  7  2  0
  7  8  1  0
  8  9  2  0
  9 10  1  0
 10 11  2  0
  2 12  1  0
 12 13  1  0
 13 14  1  0
 14 15  1  0
 15 16  1  0
 16 17  2  0
 17 18  1  0
 18 19  2  0
 19 20  1  0
 15 21  1  0
 21 22  1  0
 11  3  1  0
 22 12  1  0
 11  6  1  0
 20 16  1  0
  4 23  1  0
  5 24  1  0
  7 25  1  0
  8 26  1  0
  9 27  1  0
 10 28  1  0
 13 29  1  0
 13 30  1  0
 14 31  1  0
 14 32  1  0
 15 33  1  0
 17 34  1  0
 18 35  1  0
 20 36  1  0
 21 37  1  0
 21 38  1  0
 22 39  1  0
 22 40  1  0
M  END
>  <Energy>  (431) 
1298.0852276954618

>  <compound_id>  (431) 
25405

>  <target_id>  (431) 
1

>  <reference_id>  (431) 
93

>  <inspiration_ids>  (431) 
[93, 112]

>  <energy_score>  (431) 
1242.58060705662

>  <distance_score>  (431) 
12.73816361441081

>  <path>  (431) 
/opt/xchem-fragalysis-2/maxwin/BulkDock/SCRATCH/511017/C25405-P93/C25405-P93.minimised.mol

>  <scratch_subdir>  (431) 
/opt/xchem-fragalysis-2/maxwin/BulkDock/SCRATCH/511017/C25405-P93

>  <fragmenstein_runtime>  (431) 
18.684794187545776

>  <fragmenstein_outcome>  (431) 
too moved

>  <fragmenstein_mode>  (431) 
expansion

>  <fragmenstein_error>  (431) 


$$$$
C25405-P112
     RDKit          3D

 40 43  0  0  0  0  0  0  0  0999 V2000
    1.6958  -12.5917   14.9212 O   0  0  0  0  0  0  0  0  0  0  0  0
    1.6436  -11.9554   13.9104 C   0  0  0  0  0  0  0  0  0  0  0  0
    3.0532  -10.4945   13.9872 C   0  0  0  0  0  0  0  0  0  0  0  0
    3.9208  -10.9219   15.1563 C   0  0  0  0  0  0  0  0  0  0  0  0
    4.8376  -11.5337   14.4078 N   0  0  0  0  0  0  0  0  0  0  0  0
    5.2244  -10.6201   13.5710 C   0  0  0  0  0  0  0  0  0  0  0  0
    6.4802  -10.7008   13.1944 C   0  0  0  0  0  0  0  0  0  0  0  0
    6.9547   -9.5480   13.5616 C   0  0  0  0  0  0  0  0  0  0  0  0
    6.2239   -7.9973   13.9982 C   0  0  0  0  0  0  0  0  0  0  0  0
    4.5838   -8.0630   13.8260 C   0  0  0  0  0  0  0  0  0  0  0  0
    4.2100   -9.6859   13.6257 C   0  0  0  0  0  0  0  0  0  0  0  0
    0.5082  -12.5298   12.6308 N   0  0  0  0  0  0  0  0  0  0  0  0
   -0.4351  -13.5624   12.6088 C   0  0  0  0  0  0  0  0  0  0  0  0
   -1.1587  -14.6797   11.3187 C   0  0  0  0  0  0  0  0  0  0  0  0
   -0.3731  -15.8459   10.7727 C   0  0  0  0  0  0  0  0  0  0  0  0
   -0.9552  -17.2704   10.6123 C   0  0  0  0  0  0  0  0  0  0  0  0
   -0.5019  -18.5513   10.8972 C   0  0  0  0  0  0  0  0  0  0  0  0
   -1.5842  -19.4186   10.6144 C   0  0  0  0  0  0  0  0  0  0  0  0
   -2.6283  -18.7655   10.1021 N   0  0  0  0  0  0  0  0  0  0  0  0
   -2.1934  -17.4940   10.0132 N   0  0  0  0  0  0  0  0  0  0  0  0
    0.8597  -15.2942   11.3200 C   0  0  0  0  0  0  0  0  0  0  0  0
    1.1108  -13.4843   11.6800 C   0  0  0  0  0  0  0  0  0  0  0  0
    3.6303  -11.3131   16.1258 H   0  0  0  0  0  0  0  0  0  0  0  0
    5.3695  -12.3758   14.5252 H   0  0  0  0  0  0  0  0  0  0  0  0
    7.0129  -11.6275   13.2203 H   0  0  0  0  0  0  0  0  0  0  0  0
    7.8470  -10.0054   14.0806 H   0  0  0  0  0  0  0  0  0  0  0  0
    6.7127   -7.2834   14.6269 H   0  0  0  0  0  0  0  0  0  0  0  0
    3.8927   -7.3391   14.1816 H   0  0  0  0  0  0  0  0  0  0  0  0
   -0.8985  -13.6099   13.5610 H   0  0  0  0  0  0  0  0  0  0  0  0
   -0.8382  -12.7487   12.0265 H   0  0  0  0  0  0  0  0  0  0  0  0
   -1.3320  -13.9756   10.5563 H   0  0  0  0  0  0  0  0  0  0  0  0
   -2.2153  -14.9459   11.3920 H   0  0  0  0  0  0  0  0  0  0  0  0
    0.1141  -15.9630    9.8187 H   0  0  0  0  0  0  0  0  0  0  0  0
    0.4603  -18.8157   11.3175 H   0  0  0  0  0  0  0  0  0  0  0  0
   -1.6462  -20.4903   10.7603 H   0  0  0  0  0  0  0  0  0  0  0  0
   -2.8216  -16.8008    9.6188 H   0  0  0  0  0  0  0  0  0  0  0  0
    1.6838  -15.7205   10.7312 H   0  0  0  0  0  0  0  0  0  0  0  0
    0.7825  -15.7990   12.1966 H   0  0  0  0  0  0  0  0  0  0  0  0
    1.7728  -13.8537   12.4017 H   0  0  0  0  0  0  0  0  0  0  0  0
    1.4767  -12.8533   10.8933 H   0  0  0  0  0  0  0  0  0  0  0  0
  1  2  2  0
  2  3  1  0
  3  4  2  0
  4  5  1  0
  5  6  1  0
  6  7  2  0
  7  8  1  0
  8  9  2  0
  9 10  1  0
 10 11  2  0
  2 12  1  0
 12 13  1  0
 13 14  1  0
 14 15  1  0
 15 16  1  0
 16 17  2  0
 17 18  1  0
 18 19  2  0
 19 20  1  0
 15 21  1  0
 21 22  1  0
 11  3  1  0
 22 12  1  0
 11  6  1  0
 20 16  1  0
  4 23  1  0
  5 24  1  0
  7 25  1  0
  8 26  1  0
  9 27  1  0
 10 28  1  0
 13 29  1  0
 13 30  1  0
 14 31  1  0
 14 32  1  0
 15 33  1  0
 17 34  1  0
 18 35  1  0
 20 36  1  0
 21 37  1  0
 21 38  1  0
 22 39  1  0
 22 40  1  0
M  END
>  <Energy>  (432) 
711.36653824980465

>  <compound_id>  (432) 
25405

>  <target_id>  (432) 
1

>  <reference_id>  (432) 
112

>  <inspiration_ids>  (432) 
[93, 112]

>  <energy_score>  (432) 
655.8619176109517

>  <distance_score>  (432) 
12.614775980502378

>  <path>  (432) 
/opt/xchem-fragalysis-2/maxwin/BulkDock/SCRATCH/511017/C25405-P112/C25405-P112.minimised.mol

>  <scratch_subdir>  (432) 
/opt/xchem-fragalysis-2/maxwin/BulkDock/SCRATCH/511017/C25405-P112

>  <fragmenstein_runtime>  (432) 
15.810426950454712

>  <fragmenstein_outcome>  (432) 
too moved

>  <fragmenstein_mode>  (432) 
expansion

>  <fragmenstein_error>  (432) 


$$$$
C25406-P93
     RDKit          3D

 28 31  0  0  0  0  0  0  0  0999 V2000
   -0.8319  -18.9898   20.0912 C   0  0  0  0  0  0  0  0  0  0  0  0
    0.5105  -18.5802   20.2759 C   0  0  0  0  0  0  0  0  0  0  0  0
    0.4638  -17.3318   20.8836 C   0  0  0  0  0  0  0  0  0  0  0  0
    1.4782  -16.3434   21.2933 C   0  0  0  0  0  0  0  0  0  0  0  0
    2.5129  -15.8848   20.5844 N   0  0  0  0  0  0  0  0  0  0  0  0
    3.0498  -14.7839   21.2986 C   0  0  0  0  0  0  0  0  0  0  0  0
    4.2145  -13.8868   20.8484 C   0  0  0  0  0  0  0  0  0  0  0  0
    5.4115  -14.4490   20.3788 C   0  0  0  0  0  0  0  0  0  0  0  0
    6.5675  -13.6791   20.0649 C   0  0  0  0  0  0  0  0  0  0  0  0
    6.5074  -12.2826   20.1755 C   0  0  0  0  0  0  0  0  0  0  0  0
    7.4611  -11.3117   19.9308 N   0  0  0  0  0  0  0  0  0  0  0  0
    6.9396  -10.0677   20.1705 C   0  0  0  0  0  0  0  0  0  0  0  0
    5.6328  -10.2403   20.5796 C   0  0  0  0  0  0  0  0  0  0  0  0
    5.3413  -11.6447   20.5967 C   0  0  0  0  0  0  0  0  0  0  0  0
    4.2040  -12.4605   20.9486 C   0  0  0  0  0  0  0  0  0  0  0  0
    2.3748  -14.6055   22.4515 N   0  0  0  0  0  0  0  0  0  0  0  0
    1.3674  -15.6006   22.4484 O   0  0  0  0  0  0  0  0  0  0  0  0
   -0.8909  -17.1189   21.0597 N   0  0  0  0  0  0  0  0  0  0  0  0
   -1.6938  -18.0841   20.5531 N   0  0  0  0  0  0  0  0  0  0  0  0
   -1.2031  -19.9016   19.6399 H   0  0  0  0  0  0  0  0  0  0  0  0
    1.3905  -19.1407   19.9947 H   0  0  0  0  0  0  0  0  0  0  0  0
    5.4784  -15.5344   20.2856 H   0  0  0  0  0  0  0  0  0  0  0  0
    7.4746  -14.1807   19.7397 H   0  0  0  0  0  0  0  0  0  0  0  0
    8.4065  -11.5005   19.6270 H   0  0  0  0  0  0  0  0  0  0  0  0
    7.5391   -9.1759   20.0463 H   0  0  0  0  0  0  0  0  0  0  0  0
    4.9520   -9.4462   20.8571 H   0  0  0  0  0  0  0  0  0  0  0  0
    3.3063  -11.9664   21.3144 H   0  0  0  0  0  0  0  0  0  0  0  0
   -1.3305  -16.3093   21.4842 H   0  0  0  0  0  0  0  0  0  0  0  0
  1  2  1  0
  2  3  2  0
  3  4  1  0
  4  5  2  0
  5  6  1  0
  6  7  1  0
  7  8  2  0
  8  9  1  0
  9 10  2  0
 10 11  1  0
 11 12  1  0
 12 13  2  0
 13 14  1  0
 14 15  2  0
  6 16  2  0
 16 17  1  0
  3 18  1  0
 18 19  1  0
 19  1  2  0
 17  4  1  0
 15  7  1  0
 14 10  1  0
  1 20  1  0
  2 21  1  0
  8 22  1  0
  9 23  1  0
 11 24  1  0
 12 25  1  0
 13 26  1  0
 15 27  1  0
 18 28  1  0
M  END
>  <Energy>  (433) 
45.714673985445415

>  <compound_id>  (433) 
25406

>  <target_id>  (433) 
1

>  <reference_id>  (433) 
93

>  <inspiration_ids>  (433) 
[93, 112]

>  <energy_score>  (433) 
-5.011005701277469

>  <distance_score>  (433) 
14.986231321450362

>  <path>  (433) 
/opt/xchem-fragalysis-2/maxwin/BulkDock/SCRATCH/511017/C25406-P93/C25406-P93.minimised.mol

>  <scratch_subdir>  (433) 
/opt/xchem-fragalysis-2/maxwin/BulkDock/SCRATCH/511017/C25406-P93

>  <fragmenstein_runtime>  (433) 
6.613070726394653

>  <fragmenstein_outcome>  (433) 
too moved

>  <fragmenstein_mode>  (433) 
expansion

>  <fragmenstein_error>  (433) 


$$$$
C25406-P112
     RDKit          3D

 28 31  0  0  0  0  0  0  0  0999 V2000
   -3.7451  -13.9704   18.4138 C   0  0  0  0  0  0  0  0  0  0  0  0
   -3.2081  -14.4519   17.2175 C   0  0  0  0  0  0  0  0  0  0  0  0
   -1.9178  -13.8488   17.0500 C   0  0  0  0  0  0  0  0  0  0  0  0
   -0.6321  -14.0890   15.9225 C   0  0  0  0  0  0  0  0  0  0  0  0
    0.9492  -13.7461   16.3398 N   0  0  0  0  0  0  0  0  0  0  0  0
    1.8705  -12.5567   15.2408 C   0  0  0  0  0  0  0  0  0  0  0  0
    3.5574  -11.4925   15.6962 C   0  0  0  0  0  0  0  0  0  0  0  0
    3.8087  -10.6101   16.8333 C   0  0  0  0  0  0  0  0  0  0  0  0
    4.5247   -9.3573   16.7844 C   0  0  0  0  0  0  0  0  0  0  0  0
    5.0517   -9.0057   15.5476 C   0  0  0  0  0  0  0  0  0  0  0  0
    5.5226   -7.8598   14.9749 N   0  0  0  0  0  0  0  0  0  0  0  0
    5.8005   -8.0918   13.6494 C   0  0  0  0  0  0  0  0  0  0  0  0
    5.8325   -9.4330   13.4414 C   0  0  0  0  0  0  0  0  0  0  0  0
    5.2069   -9.9563   14.5717 C   0  0  0  0  0  0  0  0  0  0  0  0
    4.6267  -11.1901   14.7741 C   0  0  0  0  0  0  0  0  0  0  0  0
    1.0704  -12.8492   13.7163 N   0  0  0  0  0  0  0  0  0  0  0  0
   -0.7080  -13.6029   14.0152 O   0  0  0  0  0  0  0  0  0  0  0  0
   -1.9436  -12.9195   18.0419 N   0  0  0  0  0  0  0  0  0  0  0  0
   -2.9833  -13.0007   18.9062 N   0  0  0  0  0  0  0  0  0  0  0  0
   -4.6685  -14.2349   18.9126 H   0  0  0  0  0  0  0  0  0  0  0  0
   -3.6923  -15.1884   16.5866 H   0  0  0  0  0  0  0  0  0  0  0  0
    3.4498  -10.8312   17.8267 H   0  0  0  0  0  0  0  0  0  0  0  0
    4.5302   -8.6872   17.6367 H   0  0  0  0  0  0  0  0  0  0  0  0
    5.5260   -6.9630   15.4313 H   0  0  0  0  0  0  0  0  0  0  0  0
    6.0174   -7.3394   12.9155 H   0  0  0  0  0  0  0  0  0  0  0  0
    6.0573   -9.9303   12.5086 H   0  0  0  0  0  0  0  0  0  0  0  0
    5.0166  -11.8874   14.0568 H   0  0  0  0  0  0  0  0  0  0  0  0
   -1.2591  -12.1948   18.1838 H   0  0  0  0  0  0  0  0  0  0  0  0
  1  2  1  0
  2  3  2  0
  3  4  1  0
  4  5  2  0
  5  6  1  0
  6  7  1  0
  7  8  2  0
  8  9  1  0
  9 10  2  0
 10 11  1  0
 11 12  1  0
 12 13  2  0
 13 14  1  0
 14 15  2  0
  6 16  2  0
 16 17  1  0
  3 18  1  0
 18 19  1  0
 19  1  2  0
 17  4  1  0
 15  7  1  0
 14 10  1  0
  1 20  1  0
  2 21  1  0
  8 22  1  0
  9 23  1  0
 11 24  1  0
 12 25  1  0
 13 26  1  0
 15 27  1  0
 18 28  1  0
M  END
>  <Energy>  (434) 
547.10071767786508

>  <compound_id>  (434) 
25406

>  <target_id>  (434) 
1

>  <reference_id>  (434) 
112

>  <inspiration_ids>  (434) 
[93, 112]

>  <energy_score>  (434) 
496.37503799113796

>  <distance_score>  (434) 
13.919224708013878

>  <path>  (434) 
/opt/xchem-fragalysis-2/maxwin/BulkDock/SCRATCH/511017/C25406-P112/C25406-P112.minimised.mol

>  <scratch_subdir>  (434) 
/opt/xchem-fragalysis-2/maxwin/BulkDock/SCRATCH/511017/C25406-P112

>  <fragmenstein_runtime>  (434) 
4.698108673095703

>  <fragmenstein_outcome>  (434) 
too moved

>  <fragmenstein_mode>  (434) 
expansion

>  <fragmenstein_error>  (434) 


$$$$
C25407-P93
     RDKit          3D

 34 37  0  0  0  0  0  0  0  0999 V2000
   -3.6910  -19.0413   18.4051 C   0  0  0  0  0  0  0  0  0  0  0  0
   -2.6962  -18.3793   19.1509 C   0  0  0  0  0  0  0  0  0  0  0  0
   -1.6052  -18.2593   18.3072 C   0  0  0  0  0  0  0  0  0  0  0  0
   -0.1864  -17.7403   18.5301 C   0  0  0  0  0  0  0  0  0  0  0  0
   -0.0527  -16.2635   19.0266 C   0  0  0  0  0  0  0  0  0  0  0  0
    1.3674  -15.7239   19.4220 C   0  0  0  0  0  0  0  0  0  0  0  0
    1.7332  -14.7101   20.2162 N   0  0  0  0  0  0  0  0  0  0  0  0
    3.1379  -14.6155   20.0532 C   0  0  0  0  0  0  0  0  0  0  0  0
    4.0535  -13.5381   20.6431 C   0  0  0  0  0  0  0  0  0  0  0  0
    3.6237  -12.5936   21.5840 C   0  0  0  0  0  0  0  0  0  0  0  0
    4.4653  -11.5475   22.0818 C   0  0  0  0  0  0  0  0  0  0  0  0
    5.7622  -11.4024   21.5520 C   0  0  0  0  0  0  0  0  0  0  0  0
    6.7225  -10.4236   21.7307 N   0  0  0  0  0  0  0  0  0  0  0  0
    7.8392  -10.7074   20.9900 C   0  0  0  0  0  0  0  0  0  0  0  0
    7.6021  -11.8934   20.3302 C   0  0  0  0  0  0  0  0  0  0  0  0
    6.2728  -12.3312   20.6472 C   0  0  0  0  0  0  0  0  0  0  0  0
    5.4181  -13.4225   20.2621 C   0  0  0  0  0  0  0  0  0  0  0  0
    3.5994  -15.6098   19.2664 N   0  0  0  0  0  0  0  0  0  0  0  0
    2.4581  -16.3054   18.8356 O   0  0  0  0  0  0  0  0  0  0  0  0
   -2.0169  -18.8573   17.1330 N   0  0  0  0  0  0  0  0  0  0  0  0
   -3.2803  -19.3214   17.1718 N   0  0  0  0  0  0  0  0  0  0  0  0
   -4.6885  -19.3293   18.7091 H   0  0  0  0  0  0  0  0  0  0  0  0
   -2.7560  -18.0535   20.1796 H   0  0  0  0  0  0  0  0  0  0  0  0
    0.3996  -17.8644   17.6120 H   0  0  0  0  0  0  0  0  0  0  0  0
    0.2851  -18.3946   19.2754 H   0  0  0  0  0  0  0  0  0  0  0  0
   -0.4453  -15.5876   18.2571 H   0  0  0  0  0  0  0  0  0  0  0  0
   -0.6855  -16.1298   19.9132 H   0  0  0  0  0  0  0  0  0  0  0  0
    2.5982  -12.6516   21.9498 H   0  0  0  0  0  0  0  0  0  0  0  0
    4.0728  -10.8384   22.8055 H   0  0  0  0  0  0  0  0  0  0  0  0
    6.6054   -9.6013   22.3047 H   0  0  0  0  0  0  0  0  0  0  0  0
    8.6903  -10.0401   20.9836 H   0  0  0  0  0  0  0  0  0  0  0  0
    8.3028  -12.3742   19.6627 H   0  0  0  0  0  0  0  0  0  0  0  0
    5.8064  -14.2059   19.6228 H   0  0  0  0  0  0  0  0  0  0  0  0
   -1.4825  -18.9979   16.2802 H   0  0  0  0  0  0  0  0  0  0  0  0
  1  2  1  0
  2  3  2  0
  3  4  1  0
  4  5  1  0
  5  6  1  0
  6  7  2  0
  7  8  1  0
  8  9  1  0
  9 10  2  0
 10 11  1  0
 11 12  2  0
 12 13  1  0
 13 14  1  0
 14 15  2  0
 15 16  1  0
 16 17  2  0
  8 18  2  0
 18 19  1  0
  3 20  1  0
 20 21  1  0
 21  1  2  0
 19  6  1  0
 17  9  1  0
 16 12  1  0
  1 22  1  0
  2 23  1  0
  4 24  1  0
  4 25  1  0
  5 26  1  0
  5 27  1  0
 10 28  1  0
 11 29  1  0
 13 30  1  0
 14 31  1  0
 15 32  1  0
 17 33  1  0
 20 34  1  0
M  END
>  <Energy>  (435) 
51.330681230273122

>  <compound_id>  (435) 
25407

>  <target_id>  (435) 
1

>  <reference_id>  (435) 
93

>  <inspiration_ids>  (435) 
[93, 112]

>  <energy_score>  (435) 
-16.34114065027842

>  <distance_score>  (435) 
13.432024476435444

>  <path>  (435) 
/opt/xchem-fragalysis-2/maxwin/BulkDock/SCRATCH/511017/C25407-P93/C25407-P93.minimised.mol

>  <scratch_subdir>  (435) 
/opt/xchem-fragalysis-2/maxwin/BulkDock/SCRATCH/511017/C25407-P93

>  <fragmenstein_runtime>  (435) 
10.82746958732605

>  <fragmenstein_outcome>  (435) 
too moved

>  <fragmenstein_mode>  (435) 
expansion

>  <fragmenstein_error>  (435) 


$$$$
C25407-P112
     RDKit          3D

 34 37  0  0  0  0  0  0  0  0999 V2000
   -5.4530  -15.5454   17.2796 C   0  0  0  0  0  0  0  0  0  0  0  0
   -4.7135  -14.3454   17.4010 C   0  0  0  0  0  0  0  0  0  0  0  0
   -3.4062  -14.7251   17.6403 C   0  0  0  0  0  0  0  0  0  0  0  0
   -2.0716  -13.9947   17.7834 C   0  0  0  0  0  0  0  0  0  0  0  0
   -1.9965  -12.4790   18.2675 C   0  0  0  0  0  0  0  0  0  0  0  0
   -0.5765  -11.7766   17.9580 C   0  0  0  0  0  0  0  0  0  0  0  0
    0.3710  -10.0890   18.0979 N   0  0  0  0  0  0  0  0  0  0  0  0
    2.3821  -10.4006   17.5839 C   0  0  0  0  0  0  0  0  0  0  0  0
    3.2439   -9.6841   16.7445 C   0  0  0  0  0  0  0  0  0  0  0  0
    3.8564  -10.5909   15.3595 C   0  0  0  0  0  0  0  0  0  0  0  0
    4.3136   -9.7048   13.9789 C   0  0  0  0  0  0  0  0  0  0  0  0
    4.3321   -7.8954   14.0286 C   0  0  0  0  0  0  0  0  0  0  0  0
    5.9269   -7.2362   14.2018 N   0  0  0  0  0  0  0  0  0  0  0  0
    6.0770   -6.3399   15.7136 C   0  0  0  0  0  0  0  0  0  0  0  0
    4.7530   -6.0967   16.3410 C   0  0  0  0  0  0  0  0  0  0  0  0
    3.5163   -6.9808   15.4057 C   0  0  0  0  0  0  0  0  0  0  0  0
    2.7505   -7.9649   16.5503 C   0  0  0  0  0  0  0  0  0  0  0  0
    2.7315  -12.2377   17.9034 N   0  0  0  0  0  0  0  0  0  0  0  0
    0.8593  -13.1520   18.0450 O   0  0  0  0  0  0  0  0  0  0  0  0
   -3.4622  -16.1105   17.6584 N   0  0  0  0  0  0  0  0  0  0  0  0
   -4.6853  -16.6218   17.4296 N   0  0  0  0  0  0  0  0  0  0  0  0
   -6.5105  -15.6717   17.0849 H   0  0  0  0  0  0  0  0  0  0  0  0
   -5.0938  -13.3381   17.3091 H   0  0  0  0  0  0  0  0  0  0  0  0
   -1.4482  -14.5757   18.4772 H   0  0  0  0  0  0  0  0  0  0  0  0
   -1.5795  -14.0777   16.8125 H   0  0  0  0  0  0  0  0  0  0  0  0
   -2.8019  -11.8774   17.8387 H   0  0  0  0  0  0  0  0  0  0  0  0
   -2.1263  -12.4530   19.3561 H   0  0  0  0  0  0  0  0  0  0  0  0
    4.0899  -11.6125   15.4446 H   0  0  0  0  0  0  0  0  0  0  0  0
    5.1263  -10.2513   13.4972 H   0  0  0  0  0  0  0  0  0  0  0  0
    6.7390   -7.7912   13.9620 H   0  0  0  0  0  0  0  0  0  0  0  0
    7.0795   -6.0205   15.8574 H   0  0  0  0  0  0  0  0  0  0  0  0
    4.5238   -5.6627   17.3066 H   0  0  0  0  0  0  0  0  0  0  0  0
    2.3266   -7.4790   17.4346 H   0  0  0  0  0  0  0  0  0  0  0  0
   -2.6958  -16.7600   17.8096 H   0  0  0  0  0  0  0  0  0  0  0  0
  1  2  1  0
  2  3  2  0
  3  4  1  0
  4  5  1  0
  5  6  1  0
  6  7  2  0
  7  8  1  0
  8  9  1  0
  9 10  2  0
 10 11  1  0
 11 12  2  0
 12 13  1  0
 13 14  1  0
 14 15  2  0
 15 16  1  0
 16 17  2  0
  8 18  2  0
 18 19  1  0
  3 20  1  0
 20 21  1  0
 21  1  2  0
 19  6  1  0
 17  9  1  0
 16 12  1  0
  1 22  1  0
  2 23  1  0
  4 24  1  0
  4 25  1  0
  5 26  1  0
  5 27  1  0
 10 28  1  0
 11 29  1  0
 13 30  1  0
 14 31  1  0
 15 32  1  0
 17 33  1  0
 20 34  1  0
M  END
>  <Energy>  (436) 
1082.188725913541

>  <compound_id>  (436) 
25407

>  <target_id>  (436) 
1

>  <reference_id>  (436) 
112

>  <inspiration_ids>  (436) 
[93, 112]

>  <energy_score>  (436) 
1014.5169040330145

>  <distance_score>  (436) 
12.756775786513883

>  <path>  (436) 
/opt/xchem-fragalysis-2/maxwin/BulkDock/SCRATCH/511017/C25407-P112/C25407-P112.minimised.mol

>  <scratch_subdir>  (436) 
/opt/xchem-fragalysis-2/maxwin/BulkDock/SCRATCH/511017/C25407-P112

>  <fragmenstein_runtime>  (436) 
11.29246473312378

>  <fragmenstein_outcome>  (436) 
too moved

>  <fragmenstein_mode>  (436) 
expansion

>  <fragmenstein_error>  (436) 


$$$$
C25408-P93
     RDKit          3D

 41 43  0  0  0  0  0  0  0  0999 V2000
    7.1032  -22.1381    8.7820 C   0  0  0  0  0  0  0  0  0  0  0  0
    6.7651  -20.7923    9.1443 N   0  0  0  0  0  0  0  0  0  0  0  0
    6.9541  -19.5521    8.4437 C   0  0  0  0  0  0  0  0  0  0  0  0
    7.5132  -19.3152    7.4127 O   0  0  0  0  0  0  0  0  0  0  0  0
    6.2948  -18.3866    9.2326 C   0  0  0  0  0  0  0  0  0  0  0  0
    6.9353  -16.9498    8.7719 C   0  0  0  0  0  0  0  0  0  0  0  0
    8.4251  -16.4511    9.1173 C   0  0  0  0  0  0  0  0  0  0  0  0
    9.4573  -17.2521    9.5792 C   0  0  0  0  0  0  0  0  0  0  0  0
   10.5882  -16.4972    9.8073 N   0  0  0  0  0  0  0  0  0  0  0  0
   10.3646  -15.1715    9.5341 C   0  0  0  0  0  0  0  0  0  0  0  0
   11.2313  -14.0670    9.6976 C   0  0  0  0  0  0  0  0  0  0  0  0
   10.8134  -12.8175    9.2460 C   0  0  0  0  0  0  0  0  0  0  0  0
    9.5708  -12.6932    8.6483 C   0  0  0  0  0  0  0  0  0  0  0  0
    8.6988  -13.8023    8.5555 C   0  0  0  0  0  0  0  0  0  0  0  0
    9.0608  -15.0930    9.0198 C   0  0  0  0  0  0  0  0  0  0  0  0
    4.7387  -18.4198    8.9171 N   0  0  0  0  0  0  0  0  0  0  0  0
    3.6500  -19.7059    9.4528 S   0  0  0  0  0  0  0  0  0  0  0  0
    4.3036  -20.5430   10.4284 O   0  0  0  0  0  0  0  0  0  0  0  0
    2.9618  -20.2327    8.2973 O   0  0  0  0  0  0  0  0  0  0  0  0
    2.3584  -18.9610   10.3538 C   0  0  0  0  0  0  0  0  0  0  0  0
    1.7545  -17.7359   10.2287 C   0  0  0  0  0  0  0  0  0  0  0  0
    0.9234  -17.6447   11.3377 C   0  0  0  0  0  0  0  0  0  0  0  0
    0.8922  -18.7578   12.0737 N   0  0  0  0  0  0  0  0  0  0  0  0
    1.7131  -19.5891   11.3923 N   0  0  0  0  0  0  0  0  0  0  0  0
    6.1869  -22.6575    8.4922 H   0  0  0  0  0  0  0  0  0  0  0  0
    7.8038  -22.1299    7.9440 H   0  0  0  0  0  0  0  0  0  0  0  0
    7.5487  -22.6317    9.6481 H   0  0  0  0  0  0  0  0  0  0  0  0
    6.1643  -20.6295    9.9538 H   0  0  0  0  0  0  0  0  0  0  0  0
    6.4300  -18.5236   10.3080 H   0  0  0  0  0  0  0  0  0  0  0  0
    6.2787  -16.1850    9.1980 H   0  0  0  0  0  0  0  0  0  0  0  0
    6.8317  -16.9067    7.6932 H   0  0  0  0  0  0  0  0  0  0  0  0
    9.4940  -18.3168    9.7695 H   0  0  0  0  0  0  0  0  0  0  0  0
   11.4627  -16.8632   10.1569 H   0  0  0  0  0  0  0  0  0  0  0  0
   12.2171  -14.1920   10.1352 H   0  0  0  0  0  0  0  0  0  0  0  0
   11.4678  -11.9556    9.3381 H   0  0  0  0  0  0  0  0  0  0  0  0
    9.2527  -11.7319    8.2546 H   0  0  0  0  0  0  0  0  0  0  0  0
    7.7370  -13.6476    8.0949 H   0  0  0  0  0  0  0  0  0  0  0  0
    4.6098  -18.3632    7.8976 H   0  0  0  0  0  0  0  0  0  0  0  0
    1.9636  -16.9840    9.4835 H   0  0  0  0  0  0  0  0  0  0  0  0
    0.3512  -16.7766   11.6141 H   0  0  0  0  0  0  0  0  0  0  0  0
    1.8081  -20.5538   11.7157 H   0  0  0  0  0  0  0  0  0  0  0  0
  1  2  1  0
  2  3  1  0
  3  4  2  0
  3  5  1  0
  5  6  1  0
  6  7  1  0
  7  8  2  0
  8  9  1  0
  9 10  1  0
 10 11  2  0
 11 12  1  0
 12 13  2  0
 13 14  1  0
 14 15  2  0
  5 16  1  0
 16 17  1  0
 17 18  2  0
 17 19  2  0
 17 20  1  0
 20 21  2  0
 21 22  1  0
 22 23  2  0
 23 24  1  0
 15  7  1  0
 24 20  1  0
 15 10  1  0
  1 25  1  0
  1 26  1  0
  1 27  1  0
  2 28  1  0
  5 29  1  0
  6 30  1  0
  6 31  1  0
  8 32  1  0
  9 33  1  0
 11 34  1  0
 12 35  1  0
 13 36  1  0
 14 37  1  0
 16 38  1  0
 21 39  1  0
 22 40  1  0
 24 41  1  0
M  END
>  <Energy>  (437) 
-36.115274201271198

>  <compound_id>  (437) 
25408

>  <target_id>  (437) 
1

>  <reference_id>  (437) 
93

>  <inspiration_ids>  (437) 
[93, 112]

>  <energy_score>  (437) 
-14.968848422192991

>  <distance_score>  (437) 
15.145646286508047

>  <path>  (437) 
/opt/xchem-fragalysis-2/maxwin/BulkDock/SCRATCH/511017/C25408-P93/C25408-P93.minimised.mol

>  <scratch_subdir>  (437) 
/opt/xchem-fragalysis-2/maxwin/BulkDock/SCRATCH/511017/C25408-P93

>  <fragmenstein_runtime>  (437) 
28.01632595062256

>  <fragmenstein_outcome>  (437) 
too moved

>  <fragmenstein_mode>  (437) 
expansion

>  <fragmenstein_error>  (437) 


$$$$
C25408-P112
     RDKit          3D

 41 43  0  0  0  0  0  0  0  0999 V2000
   -0.0377  -15.6269   10.8636 C   0  0  0  0  0  0  0  0  0  0  0  0
    0.3824  -14.6394   11.8181 N   0  0  0  0  0  0  0  0  0  0  0  0
    0.0952  -13.2064   11.9124 C   0  0  0  0  0  0  0  0  0  0  0  0
   -0.4892  -12.4818   11.1805 O   0  0  0  0  0  0  0  0  0  0  0  0
    0.5465  -12.6515   13.2016 C   0  0  0  0  0  0  0  0  0  0  0  0
    1.7605  -11.0037   12.9993 C   0  0  0  0  0  0  0  0  0  0  0  0
    3.4685  -10.2956   13.9806 C   0  0  0  0  0  0  0  0  0  0  0  0
    4.5279  -10.9646   14.5927 C   0  0  0  0  0  0  0  0  0  0  0  0
    4.0058  -10.9638   15.9302 N   0  0  0  0  0  0  0  0  0  0  0  0
    4.0783   -9.6846   16.3605 C   0  0  0  0  0  0  0  0  0  0  0  0
    4.2841   -9.0795   17.6011 C   0  0  0  0  0  0  0  0  0  0  0  0
    4.7156   -7.7686   17.5405 C   0  0  0  0  0  0  0  0  0  0  0  0
    5.0072   -7.2182   16.3008 C   0  0  0  0  0  0  0  0  0  0  0  0
    4.7304   -7.8994   15.0899 C   0  0  0  0  0  0  0  0  0  0  0  0
    3.9987   -9.1136   15.1069 C   0  0  0  0  0  0  0  0  0  0  0  0
   -1.1940  -13.6551   13.6701 N   0  0  0  0  0  0  0  0  0  0  0  0
   -2.8142  -14.9133   14.8771 S   0  0  0  0  0  0  0  0  0  0  0  0
   -3.1113  -16.4031   14.8633 O   0  0  0  0  0  0  0  0  0  0  0  0
   -3.1791  -14.2978   16.1864 O   0  0  0  0  0  0  0  0  0  0  0  0
   -4.5452  -14.8577   13.1479 C   0  0  0  0  0  0  0  0  0  0  0  0
   -6.0335  -14.4783   12.7440 C   0  0  0  0  0  0  0  0  0  0  0  0
   -6.9434  -15.5546   12.5617 C   0  0  0  0  0  0  0  0  0  0  0  0
   -6.5450  -16.6443   13.1762 N   0  0  0  0  0  0  0  0  0  0  0  0
   -5.3643  -16.2957   13.7405 N   0  0  0  0  0  0  0  0  0  0  0  0
   -0.0002  -16.5935   11.3588 H   0  0  0  0  0  0  0  0  0  0  0  0
   -1.0732  -15.4363   10.6124 H   0  0  0  0  0  0  0  0  0  0  0  0
    0.6968  -15.8863   10.0954 H   0  0  0  0  0  0  0  0  0  0  0  0
    0.9508  -14.8968   12.5476 H   0  0  0  0  0  0  0  0  0  0  0  0
    1.2929  -13.3371   13.3119 H   0  0  0  0  0  0  0  0  0  0  0  0
    1.0601  -10.4963   12.2250 H   0  0  0  0  0  0  0  0  0  0  0  0
    2.2559  -10.8285   11.9266 H   0  0  0  0  0  0  0  0  0  0  0  0
    5.1016  -11.7968   14.2226 H   0  0  0  0  0  0  0  0  0  0  0  0
    3.8464  -11.7805   16.5112 H   0  0  0  0  0  0  0  0  0  0  0  0
    4.2264   -9.6283   18.5328 H   0  0  0  0  0  0  0  0  0  0  0  0
    4.9558   -7.2269   18.4512 H   0  0  0  0  0  0  0  0  0  0  0  0
    5.5501   -6.2842   16.3085 H   0  0  0  0  0  0  0  0  0  0  0  0
    5.1021   -7.5514   14.1459 H   0  0  0  0  0  0  0  0  0  0  0  0
   -0.8737  -13.5346   14.6311 H   0  0  0  0  0  0  0  0  0  0  0  0
   -6.3161  -13.4747   12.4428 H   0  0  0  0  0  0  0  0  0  0  0  0
   -7.9182  -15.5294   12.0934 H   0  0  0  0  0  0  0  0  0  0  0  0
   -4.8768  -16.8496   14.4445 H   0  0  0  0  0  0  0  0  0  0  0  0
  1  2  1  0
  2  3  1  0
  3  4  2  0
  3  5  1  0
  5  6  1  0
  6  7  1  0
  7  8  2  0
  8  9  1  0
  9 10  1  0
 10 11  2  0
 11 12  1  0
 12 13  2  0
 13 14  1  0
 14 15  2  0
  5 16  1  0
 16 17  1  0
 17 18  2  0
 17 19  2  0
 17 20  1  0
 20 21  2  0
 21 22  1  0
 22 23  2  0
 23 24  1  0
 15  7  1  0
 24 20  1  0
 15 10  1  0
  1 25  1  0
  1 26  1  0
  1 27  1  0
  2 28  1  0
  5 29  1  0
  6 30  1  0
  6 31  1  0
  8 32  1  0
  9 33  1  0
 11 34  1  0
 12 35  1  0
 13 36  1  0
 14 37  1  0
 16 38  1  0
 21 39  1  0
 22 40  1  0
 24 41  1  0
M  END
>  <Energy>  (438) 
867.23501070570785

>  <compound_id>  (438) 
25408

>  <target_id>  (438) 
1

>  <reference_id>  (438) 
112

>  <inspiration_ids>  (438) 
[93, 112]

>  <energy_score>  (438) 
888.3814364847846

>  <distance_score>  (438) 
11.90031748753235

>  <path>  (438) 
/opt/xchem-fragalysis-2/maxwin/BulkDock/SCRATCH/511017/C25408-P112/C25408-P112.minimised.mol

>  <scratch_subdir>  (438) 
/opt/xchem-fragalysis-2/maxwin/BulkDock/SCRATCH/511017/C25408-P112

>  <fragmenstein_runtime>  (438) 
17.892168760299683

>  <fragmenstein_outcome>  (438) 
too moved

>  <fragmenstein_mode>  (438) 
expansion

>  <fragmenstein_error>  (438) 


$$$$
C25409-P93
     RDKit          3D

 46 48  0  0  0  0  0  0  0  0999 V2000
   10.4185   -9.6419   15.8491 C   0  0  0  0  0  0  0  0  0  0  0  0
    9.7027   -8.0160   15.2202 C   0  0  0  0  0  0  0  0  0  0  0  0
    8.7372   -9.3566   14.3739 N   0  0  0  0  0  0  0  0  0  0  0  0
    9.2108  -10.8101   13.8006 C   0  0  0  0  0  0  0  0  0  0  0  0
   10.2926  -11.3736   13.8738 O   0  0  0  0  0  0  0  0  0  0  0  0
    8.1454  -11.6421   12.9834 C   0  0  0  0  0  0  0  0  0  0  0  0
    8.0033  -13.2437   13.2790 C   0  0  0  0  0  0  0  0  0  0  0  0
    8.6177  -14.0993   14.1862 C   0  0  0  0  0  0  0  0  0  0  0  0
    7.9330  -15.3365   14.1263 C   0  0  0  0  0  0  0  0  0  0  0  0
    6.9181  -15.2946   13.2666 N   0  0  0  0  0  0  0  0  0  0  0  0
    7.0925  -14.0905   12.6675 N   0  0  0  0  0  0  0  0  0  0  0  0
   11.0619   -6.4111   15.4299 C   0  0  0  0  0  0  0  0  0  0  0  0
   10.7359   -4.6154   14.7678 C   0  0  0  0  0  0  0  0  0  0  0  0
   11.9557   -5.4366   16.5726 N   0  0  0  0  0  0  0  0  0  0  0  0
   13.3291   -4.9883   16.5712 C   0  0  0  0  0  0  0  0  0  0  0  0
   14.2322   -5.2359   15.8267 O   0  0  0  0  0  0  0  0  0  0  0  0
   13.7257   -4.0307   17.6369 C   0  0  0  0  0  0  0  0  0  0  0  0
   13.4385   -4.2277   18.9883 C   0  0  0  0  0  0  0  0  0  0  0  0
   13.9853   -3.4000   19.9667 C   0  0  0  0  0  0  0  0  0  0  0  0
   14.8288   -2.3377   19.6248 C   0  0  0  0  0  0  0  0  0  0  0  0
   15.1453   -2.1191   18.2741 C   0  0  0  0  0  0  0  0  0  0  0  0
   15.9624   -1.1801   17.5896 C   0  0  0  0  0  0  0  0  0  0  0  0
   15.9407   -1.5043   16.2531 C   0  0  0  0  0  0  0  0  0  0  0  0
   15.1428   -2.6047   16.1026 N   0  0  0  0  0  0  0  0  0  0  0  0
   14.6032   -2.9745   17.3172 C   0  0  0  0  0  0  0  0  0  0  0  0
    9.6825  -10.2918   16.3481 H   0  0  0  0  0  0  0  0  0  0  0  0
   10.9629  -10.2130   15.1416 H   0  0  0  0  0  0  0  0  0  0  0  0
   11.3131   -9.5903   16.4583 H   0  0  0  0  0  0  0  0  0  0  0  0
    8.7867   -7.4778   14.9323 H   0  0  0  0  0  0  0  0  0  0  0  0
    7.7968   -9.1606   14.0637 H   0  0  0  0  0  0  0  0  0  0  0  0
    7.1823  -11.1521   13.1081 H   0  0  0  0  0  0  0  0  0  0  0  0
    8.4629  -11.5622   11.9378 H   0  0  0  0  0  0  0  0  0  0  0  0
    9.4301  -13.8297   14.8481 H   0  0  0  0  0  0  0  0  0  0  0  0
    8.1152  -16.2345   14.7024 H   0  0  0  0  0  0  0  0  0  0  0  0
    6.5155  -13.9149   11.8600 H   0  0  0  0  0  0  0  0  0  0  0  0
   10.8611   -6.4903   16.4501 H   0  0  0  0  0  0  0  0  0  0  0  0
    9.8224   -4.0857   15.0375 H   0  0  0  0  0  0  0  0  0  0  0  0
   11.5033   -3.9225   15.1536 H   0  0  0  0  0  0  0  0  0  0  0  0
   10.9330   -4.5262   13.6924 H   0  0  0  0  0  0  0  0  0  0  0  0
   11.4493   -4.9532   17.3107 H   0  0  0  0  0  0  0  0  0  0  0  0
   12.8121   -5.0482   19.3156 H   0  0  0  0  0  0  0  0  0  0  0  0
   13.7442   -3.5704   21.0149 H   0  0  0  0  0  0  0  0  0  0  0  0
   15.2380   -1.6974   20.4017 H   0  0  0  0  0  0  0  0  0  0  0  0
   16.5297   -0.3723   18.0329 H   0  0  0  0  0  0  0  0  0  0  0  0
   16.4448   -1.0675   15.4016 H   0  0  0  0  0  0  0  0  0  0  0  0
   15.0005   -3.1279   15.2462 H   0  0  0  0  0  0  0  0  0  0  0  0
  1  2  1  0
  2  3  1  0
  3  4  1  0
  4  5  2  0
  4  6  1  0
  6  7  1  0
  7  8  2  0
  8  9  1  0
  9 10  2  0
 10 11  1  0
  2 12  1  0
 12 13  1  0
 12 14  1  0
 14 15  1  0
 15 16  2  0
 15 17  1  0
 17 18  2  0
 18 19  1  0
 19 20  2  0
 20 21  1  0
 21 22  1  0
 22 23  2  0
 23 24  1  0
 24 25  1  0
 11  7  1  0
 25 17  1  0
 25 21  2  0
  1 26  1  0
  1 27  1  0
  1 28  1  0
  2 29  1  0
  3 30  1  0
  6 31  1  0
  6 32  1  0
  8 33  1  0
  9 34  1  0
 11 35  1  0
 12 36  1  0
 13 37  1  0
 13 38  1  0
 13 39  1  0
 14 40  1  0
 18 41  1  0
 19 42  1  0
 20 43  1  0
 22 44  1  0
 23 45  1  0
 24 46  1  0
M  END
>  <Energy>  (439) 
529.71349169926305

>  <compound_id>  (439) 
25409

>  <target_id>  (439) 
1

>  <reference_id>  (439) 
93

>  <inspiration_ids>  (439) 
[93, 112]

>  <energy_score>  (439) 
460.90820376844164

>  <distance_score>  (439) 
14.935803346646518

>  <path>  (439) 
/opt/xchem-fragalysis-2/maxwin/BulkDock/SCRATCH/511017/C25409-P93/C25409-P93.minimised.mol

>  <scratch_subdir>  (439) 
/opt/xchem-fragalysis-2/maxwin/BulkDock/SCRATCH/511017/C25409-P93

>  <fragmenstein_runtime>  (439) 
17.459723711013794

>  <fragmenstein_outcome>  (439) 
too moved

>  <fragmenstein_mode>  (439) 
expansion

>  <fragmenstein_error>  (439) 


$$$$
C25409-P112
     RDKit          3D

 46 48  0  0  0  0  0  0  0  0999 V2000
    3.7244   -6.4422   14.9287 C   0  0  0  0  0  0  0  0  0  0  0  0
    5.1346   -7.2358   13.9689 C   0  0  0  0  0  0  0  0  0  0  0  0
    4.1383   -8.2510   13.2861 N   0  0  0  0  0  0  0  0  0  0  0  0
    3.3470   -8.2004   11.7225 C   0  0  0  0  0  0  0  0  0  0  0  0
    3.3859   -7.2794   10.9276 O   0  0  0  0  0  0  0  0  0  0  0  0
    2.4358  -10.0487   11.3536 C   0  0  0  0  0  0  0  0  0  0  0  0
    0.9663  -11.2444   11.6680 C   0  0  0  0  0  0  0  0  0  0  0  0
    0.7025  -12.7217   11.7997 C   0  0  0  0  0  0  0  0  0  0  0  0
   -0.5616  -13.0753   11.5037 C   0  0  0  0  0  0  0  0  0  0  0  0
   -1.1215  -11.9371   11.1181 N   0  0  0  0  0  0  0  0  0  0  0  0
   -0.3887  -11.1020   11.8412 N   0  0  0  0  0  0  0  0  0  0  0  0
    6.4995   -6.7176   15.3718 C   0  0  0  0  0  0  0  0  0  0  0  0
    5.7227   -6.2864   16.9847 C   0  0  0  0  0  0  0  0  0  0  0  0
    7.2381   -5.4206   15.8282 N   0  0  0  0  0  0  0  0  0  0  0  0
    8.5584   -4.3706   15.0395 C   0  0  0  0  0  0  0  0  0  0  0  0
    8.9150   -4.8503   14.1016 O   0  0  0  0  0  0  0  0  0  0  0  0
    9.2166   -2.9894   15.1949 C   0  0  0  0  0  0  0  0  0  0  0  0
    8.4924   -1.7881   15.0804 C   0  0  0  0  0  0  0  0  0  0  0  0
    9.1457   -0.5568   15.1615 C   0  0  0  0  0  0  0  0  0  0  0  0
   10.5416   -0.4831   15.2845 C   0  0  0  0  0  0  0  0  0  0  0  0
   11.3094   -1.6607   15.3604 C   0  0  0  0  0  0  0  0  0  0  0  0
   12.6986   -1.9356   15.5099 C   0  0  0  0  0  0  0  0  0  0  0  0
   12.8510   -3.3020   15.5456 C   0  0  0  0  0  0  0  0  0  0  0  0
   11.6125   -3.8649   15.3891 N   0  0  0  0  0  0  0  0  0  0  0  0
   10.6453   -2.8840   15.2894 C   0  0  0  0  0  0  0  0  0  0  0  0
    3.1668   -5.5678   14.5451 H   0  0  0  0  0  0  0  0  0  0  0  0
    3.1971   -7.2166   15.4737 H   0  0  0  0  0  0  0  0  0  0  0  0
    4.0838   -5.9185   15.7549 H   0  0  0  0  0  0  0  0  0  0  0  0
    5.6771   -6.9316   13.0561 H   0  0  0  0  0  0  0  0  0  0  0  0
    3.8691   -9.0985   13.7673 H   0  0  0  0  0  0  0  0  0  0  0  0
    1.5753   -9.6508   10.7700 H   0  0  0  0  0  0  0  0  0  0  0  0
    3.0908  -10.6435   10.6951 H   0  0  0  0  0  0  0  0  0  0  0  0
    1.3378  -13.5753   11.8644 H   0  0  0  0  0  0  0  0  0  0  0  0
   -1.0008  -14.0562   11.3552 H   0  0  0  0  0  0  0  0  0  0  0  0
   -0.9186  -10.5791   12.5216 H   0  0  0  0  0  0  0  0  0  0  0  0
    7.2961   -7.3189   15.0303 H   0  0  0  0  0  0  0  0  0  0  0  0
    5.2311   -5.3118   16.9469 H   0  0  0  0  0  0  0  0  0  0  0  0
    6.4489   -6.1271   17.8048 H   0  0  0  0  0  0  0  0  0  0  0  0
    5.0037   -6.8578   17.5353 H   0  0  0  0  0  0  0  0  0  0  0  0
    7.0308   -5.0479   16.6515 H   0  0  0  0  0  0  0  0  0  0  0  0
    7.4270   -1.8160   14.8702 H   0  0  0  0  0  0  0  0  0  0  0  0
    8.5745    0.3611   15.0377 H   0  0  0  0  0  0  0  0  0  0  0  0
   11.0301    0.4877   15.2846 H   0  0  0  0  0  0  0  0  0  0  0  0
   13.4969   -1.2104   15.5944 H   0  0  0  0  0  0  0  0  0  0  0  0
   13.7264   -3.9284   15.6585 H   0  0  0  0  0  0  0  0  0  0  0  0
   11.4070   -4.8575   15.3893 H   0  0  0  0  0  0  0  0  0  0  0  0
  1  2  1  0
  2  3  1  0
  3  4  1  0
  4  5  2  0
  4  6  1  0
  6  7  1  0
  7  8  2  0
  8  9  1  0
  9 10  2  0
 10 11  1  0
  2 12  1  0
 12 13  1  0
 12 14  1  0
 14 15  1  0
 15 16  2  0
 15 17  1  0
 17 18  2  0
 18 19  1  0
 19 20  2  0
 20 21  1  0
 21 22  1  0
 22 23  2  0
 23 24  1  0
 24 25  1  0
 11  7  1  0
 25 17  1  0
 25 21  2  0
  1 26  1  0
  1 27  1  0
  1 28  1  0
  2 29  1  0
  3 30  1  0
  6 31  1  0
  6 32  1  0
  8 33  1  0
  9 34  1  0
 11 35  1  0
 12 36  1  0
 13 37  1  0
 13 38  1  0
 13 39  1  0
 14 40  1  0
 18 41  1  0
 19 42  1  0
 20 43  1  0
 22 44  1  0
 23 45  1  0
 24 46  1  0
M  END
>  <Energy>  (440) 
691.30825303087454

>  <compound_id>  (440) 
25409

>  <target_id>  (440) 
1

>  <reference_id>  (440) 
112

>  <inspiration_ids>  (440) 
[93, 112]

>  <energy_score>  (440) 
622.502965100055

>  <distance_score>  (440) 
12.954405042414999

>  <path>  (440) 
/opt/xchem-fragalysis-2/maxwin/BulkDock/SCRATCH/511017/C25409-P112/C25409-P112.minimised.mol

>  <scratch_subdir>  (440) 
/opt/xchem-fragalysis-2/maxwin/BulkDock/SCRATCH/511017/C25409-P112

>  <fragmenstein_runtime>  (440) 
13.95446491241455

>  <fragmenstein_outcome>  (440) 
too moved

>  <fragmenstein_mode>  (440) 
expansion

>  <fragmenstein_error>  (440) 


$$$$
C25412-P93
     RDKit          3D

 37 39  0  0  0  0  0  0  0  0999 V2000
   -4.0974   -8.7238   17.9730 C   0  0  0  0  0  0  0  0  0  0  0  0
   -2.9979   -9.7259   17.6304 C   0  0  0  0  0  0  0  0  0  0  0  0
   -1.9803   -9.0727   16.6219 N   0  0  0  0  0  0  0  0  0  0  0  0
   -0.7478   -8.1167   17.2560 C   0  0  0  0  0  0  0  0  0  0  0  0
    0.4670   -7.4228   16.2447 C   0  0  0  0  0  0  0  0  0  0  0  0
    2.4056   -7.4381   16.2498 C   0  0  0  0  0  0  0  0  0  0  0  0
    2.7480   -6.1477   15.2570 C   0  0  0  0  0  0  0  0  0  0  0  0
    3.3886   -7.6099   14.8521 N   0  0  0  0  0  0  0  0  0  0  0  0
    4.3662   -7.5134   13.9575 C   0  0  0  0  0  0  0  0  0  0  0  0
    5.8964   -7.6640   13.9474 C   0  0  0  0  0  0  0  0  0  0  0  0
    6.6724   -7.0380   15.2951 C   0  0  0  0  0  0  0  0  0  0  0  0
    6.3775   -6.3756   16.4572 C   0  0  0  0  0  0  0  0  0  0  0  0
    5.1231   -6.1939   16.6257 C   0  0  0  0  0  0  0  0  0  0  0  0
    4.9165   -5.6551   17.8526 F   0  0  0  0  0  0  0  0  0  0  0  0
    3.8929   -6.6285   15.4907 C   0  0  0  0  0  0  0  0  0  0  0  0
   -3.7869  -11.0133   17.1822 C   0  0  0  0  0  0  0  0  0  0  0  0
   -4.7976  -11.2538   16.2546 C   0  0  0  0  0  0  0  0  0  0  0  0
   -5.1583  -12.6135   16.3981 C   0  0  0  0  0  0  0  0  0  0  0  0
   -4.4454  -13.2166   17.3464 N   0  0  0  0  0  0  0  0  0  0  0  0
   -3.6143  -12.2467   17.7909 N   0  0  0  0  0  0  0  0  0  0  0  0
   -4.7980   -9.1319   18.7111 H   0  0  0  0  0  0  0  0  0  0  0  0
   -3.6669   -7.8141   18.4060 H   0  0  0  0  0  0  0  0  0  0  0  0
   -4.6745   -8.4254   17.0899 H   0  0  0  0  0  0  0  0  0  0  0  0
   -2.4252   -9.9827   18.5289 H   0  0  0  0  0  0  0  0  0  0  0  0
   -2.5215   -8.4201   16.0457 H   0  0  0  0  0  0  0  0  0  0  0  0
   -0.2812   -8.6009   18.1080 H   0  0  0  0  0  0  0  0  0  0  0  0
   -1.3053   -7.2614   17.6579 H   0  0  0  0  0  0  0  0  0  0  0  0
    0.1964   -6.3482   16.2570 H   0  0  0  0  0  0  0  0  0  0  0  0
    0.1016   -7.6385   15.2534 H   0  0  0  0  0  0  0  0  0  0  0  0
    2.0394   -5.5244   14.6735 H   0  0  0  0  0  0  0  0  0  0  0  0
    2.9005   -8.5197   14.7337 H   0  0  0  0  0  0  0  0  0  0  0  0
    6.4806   -7.7684   13.0372 H   0  0  0  0  0  0  0  0  0  0  0  0
    7.7533   -6.8465   15.1349 H   0  0  0  0  0  0  0  0  0  0  0  0
    6.9483   -6.1031   17.2972 H   0  0  0  0  0  0  0  0  0  0  0  0
   -5.2318  -10.5325   15.5767 H   0  0  0  0  0  0  0  0  0  0  0  0
   -5.9102  -13.1761   15.8595 H   0  0  0  0  0  0  0  0  0  0  0  0
   -2.9386  -12.4882   18.5089 H   0  0  0  0  0  0  0  0  0  0  0  0
  1  2  1  0
  2  3  1  0
  3  4  1  0
  4  5  1  0
  5  6  1  0
  6  7  2  0
  7  8  1  0
  8  9  1  0
  9 10  2  0
 10 11  1  0
 11 12  2  0
 12 13  1  0
 13 14  1  0
 13 15  2  0
  2 16  1  0
 16 17  2  0
 17 18  1  0
 18 19  2  0
 19 20  1  0
 15  6  1  0
 20 16  1  0
 15  9  1  0
  1 21  1  0
  1 22  1  0
  1 23  1  0
  2 24  1  0
  3 25  1  0
  4 26  1  0
  4 27  1  0
  5 28  1  0
  5 29  1  0
  7 30  1  0
  8 31  1  0
 10 32  1  0
 11 33  1  0
 12 34  1  0
 17 35  1  0
 18 36  1  0
 20 37  1  0
M  END
>  <Energy>  (441) 
656.929197701421

>  <compound_id>  (441) 
25412

>  <target_id>  (441) 
1

>  <reference_id>  (441) 
93

>  <inspiration_ids>  (441) 
[93, 112]

>  <energy_score>  (441) 
597.1615739043748

>  <distance_score>  (441) 
13.866758701781606

>  <path>  (441) 
/opt/xchem-fragalysis-2/maxwin/BulkDock/SCRATCH/511017/C25412-P93/C25412-P93.minimised.mol

>  <scratch_subdir>  (441) 
/opt/xchem-fragalysis-2/maxwin/BulkDock/SCRATCH/511017/C25412-P93

>  <fragmenstein_runtime>  (441) 
9.004477977752686

>  <fragmenstein_outcome>  (441) 
too moved

>  <fragmenstein_mode>  (441) 
expansion

>  <fragmenstein_error>  (441) 


$$$$
C25412-P112
     RDKit          3D

 37 39  0  0  0  0  0  0  0  0999 V2000
   -2.4711  -18.1415   15.0859 C   0  0  0  0  0  0  0  0  0  0  0  0
   -2.2580  -18.1273   16.6128 C   0  0  0  0  0  0  0  0  0  0  0  0
   -0.8508  -17.8290   17.0156 N   0  0  0  0  0  0  0  0  0  0  0  0
   -0.4657  -16.3681   17.0194 C   0  0  0  0  0  0  0  0  0  0  0  0
    1.0764  -15.9031   17.2261 C   0  0  0  0  0  0  0  0  0  0  0  0
    1.5376  -15.4579   18.6190 C   0  0  0  0  0  0  0  0  0  0  0  0
    0.8491  -15.8776   19.7454 C   0  0  0  0  0  0  0  0  0  0  0  0
    1.3595  -15.3665   20.8964 N   0  0  0  0  0  0  0  0  0  0  0  0
    2.4246  -14.5640   20.6310 C   0  0  0  0  0  0  0  0  0  0  0  0
    3.2980  -13.7820   21.5890 C   0  0  0  0  0  0  0  0  0  0  0  0
    4.5144  -13.0994   21.1774 C   0  0  0  0  0  0  0  0  0  0  0  0
    4.8200  -12.9978   19.7860 C   0  0  0  0  0  0  0  0  0  0  0  0
    3.9000  -13.6503   18.7012 C   0  0  0  0  0  0  0  0  0  0  0  0
    3.6038  -12.6584   17.8376 F   0  0  0  0  0  0  0  0  0  0  0  0
    2.6756  -14.6775   19.1327 C   0  0  0  0  0  0  0  0  0  0  0  0
   -2.7301  -19.4433   17.1967 C   0  0  0  0  0  0  0  0  0  0  0  0
   -2.4255  -20.7696   16.9371 C   0  0  0  0  0  0  0  0  0  0  0  0
   -3.3364  -21.5257   17.7074 C   0  0  0  0  0  0  0  0  0  0  0  0
   -4.1379  -20.7498   18.4414 N   0  0  0  0  0  0  0  0  0  0  0  0
   -3.7300  -19.5034   18.1371 N   0  0  0  0  0  0  0  0  0  0  0  0
   -3.5323  -18.2374   14.8383 H   0  0  0  0  0  0  0  0  0  0  0  0
   -1.9297  -18.9647   14.6067 H   0  0  0  0  0  0  0  0  0  0  0  0
   -2.1236  -17.2066   14.6342 H   0  0  0  0  0  0  0  0  0  0  0  0
   -2.8948  -17.3352   17.0297 H   0  0  0  0  0  0  0  0  0  0  0  0
   -0.2133  -18.3482   16.4119 H   0  0  0  0  0  0  0  0  0  0  0  0
   -0.7546  -15.9725   16.0397 H   0  0  0  0  0  0  0  0  0  0  0  0
   -1.0918  -15.8489   17.7541 H   0  0  0  0  0  0  0  0  0  0  0  0
    1.2127  -15.0233   16.5928 H   0  0  0  0  0  0  0  0  0  0  0  0
    1.7424  -16.6910   16.8574 H   0  0  0  0  0  0  0  0  0  0  0  0
   -0.0087  -16.5363   19.8118 H   0  0  0  0  0  0  0  0  0  0  0  0
    0.9987  -15.5637   21.8194 H   0  0  0  0  0  0  0  0  0  0  0  0
    3.0382  -13.8168   22.6476 H   0  0  0  0  0  0  0  0  0  0  0  0
    5.1384  -12.5992   21.9137 H   0  0  0  0  0  0  0  0  0  0  0  0
    5.6203  -12.3377   19.4699 H   0  0  0  0  0  0  0  0  0  0  0  0
   -1.6896  -21.1434   16.2393 H   0  0  0  0  0  0  0  0  0  0  0  0
   -3.4509  -22.6020   17.7500 H   0  0  0  0  0  0  0  0  0  0  0  0
   -4.1964  -18.7270   18.5916 H   0  0  0  0  0  0  0  0  0  0  0  0
  1  2  1  0
  2  3  1  0
  3  4  1  0
  4  5  1  0
  5  6  1  0
  6  7  2  0
  7  8  1  0
  8  9  1  0
  9 10  2  0
 10 11  1  0
 11 12  2  0
 12 13  1  0
 13 14  1  0
 13 15  2  0
  2 16  1  0
 16 17  2  0
 17 18  1  0
 18 19  2  0
 19 20  1  0
 15  6  1  0
 20 16  1  0
 15  9  1  0
  1 21  1  0
  1 22  1  0
  1 23  1  0
  2 24  1  0
  3 25  1  0
  4 26  1  0
  4 27  1  0
  5 28  1  0
  5 29  1  0
  7 30  1  0
  8 31  1  0
 10 32  1  0
 11 33  1  0
 12 34  1  0
 17 35  1  0
 18 36  1  0
 20 37  1  0
M  END
>  <Energy>  (442) 
110.19394100854566

>  <compound_id>  (442) 
25412

>  <target_id>  (442) 
1

>  <reference_id>  (442) 
112

>  <inspiration_ids>  (442) 
[93, 112]

>  <energy_score>  (442) 
50.42631721150474

>  <distance_score>  (442) 
14.395925992453853

>  <path>  (442) 
/opt/xchem-fragalysis-2/maxwin/BulkDock/SCRATCH/511017/C25412-P112/C25412-P112.minimised.mol

>  <scratch_subdir>  (442) 
/opt/xchem-fragalysis-2/maxwin/BulkDock/SCRATCH/511017/C25412-P112

>  <fragmenstein_runtime>  (442) 
8.836557626724243

>  <fragmenstein_outcome>  (442) 
too moved

>  <fragmenstein_mode>  (442) 
expansion

>  <fragmenstein_error>  (442) 


$$$$
C25413-P93
     RDKit          3D

 40 42  0  0  0  0  0  0  0  0999 V2000
    0.2667  -10.2430   10.8965 C   0  0  0  0  0  0  0  0  0  0  0  0
    1.4059  -11.2831   11.1266 C   0  0  0  0  0  0  0  0  0  0  0  0
    3.0191  -10.7959   11.6345 N   0  0  0  0  0  0  0  0  0  0  0  0
    4.1746  -10.5108   13.2226 C   0  0  0  0  0  0  0  0  0  0  0  0
    6.0003  -11.0094   13.8205 C   0  0  0  0  0  0  0  0  0  0  0  0
    7.9443  -10.5712   14.4551 C   0  0  0  0  0  0  0  0  0  0  0  0
    9.1519  -11.3503   14.2394 C   0  0  0  0  0  0  0  0  0  0  0  0
   10.3554  -10.7529   14.0486 N   0  0  0  0  0  0  0  0  0  0  0  0
   11.2801  -10.8767   12.8428 C   0  0  0  0  0  0  0  0  0  0  0  0
   10.5128  -10.6468   15.3995 C   0  0  0  0  0  0  0  0  0  0  0  0
   11.6097  -11.0629   16.1643 C   0  0  0  0  0  0  0  0  0  0  0  0
   11.3723  -11.4559   17.4655 C   0  0  0  0  0  0  0  0  0  0  0  0
   10.1461  -11.1861   18.0151 C   0  0  0  0  0  0  0  0  0  0  0  0
    9.0462  -10.7246   17.2255 C   0  0  0  0  0  0  0  0  0  0  0  0
    9.0924  -10.4992   15.8323 C   0  0  0  0  0  0  0  0  0  0  0  0
    0.5449  -12.6670   11.2257 C   0  0  0  0  0  0  0  0  0  0  0  0
   -0.3108  -13.1861   12.1982 C   0  0  0  0  0  0  0  0  0  0  0  0
   -0.8973  -14.3510   11.6651 C   0  0  0  0  0  0  0  0  0  0  0  0
   -0.5114  -14.5530   10.4074 N   0  0  0  0  0  0  0  0  0  0  0  0
    0.3227  -13.5165   10.1544 N   0  0  0  0  0  0  0  0  0  0  0  0
   -0.3344  -10.5196   10.0200 H   0  0  0  0  0  0  0  0  0  0  0  0
    0.6486   -9.2437   10.6869 H   0  0  0  0  0  0  0  0  0  0  0  0
   -0.4249  -10.1766   11.7408 H   0  0  0  0  0  0  0  0  0  0  0  0
    1.7595  -11.4037   10.0868 H   0  0  0  0  0  0  0  0  0  0  0  0
    3.6059  -11.2833   10.9562 H   0  0  0  0  0  0  0  0  0  0  0  0
    4.2075   -9.4263   13.3926 H   0  0  0  0  0  0  0  0  0  0  0  0
    3.5825  -10.8120   14.0710 H   0  0  0  0  0  0  0  0  0  0  0  0
    5.4001  -11.0555   14.6890 H   0  0  0  0  0  0  0  0  0  0  0  0
    6.0477  -12.0660   13.4924 H   0  0  0  0  0  0  0  0  0  0  0  0
    9.3080  -12.3021   14.8052 H   0  0  0  0  0  0  0  0  0  0  0  0
   10.9552  -11.5795   12.0929 H   0  0  0  0  0  0  0  0  0  0  0  0
   12.3232  -10.9989   13.1774 H   0  0  0  0  0  0  0  0  0  0  0  0
   11.3483  -10.0207   12.1860 H   0  0  0  0  0  0  0  0  0  0  0  0
   12.5824  -11.2239   15.7061 H   0  0  0  0  0  0  0  0  0  0  0  0
   12.1705  -11.8731   18.0733 H   0  0  0  0  0  0  0  0  0  0  0  0
   10.0006  -11.3153   19.0870 H   0  0  0  0  0  0  0  0  0  0  0  0
    8.1553  -10.5174   17.7740 H   0  0  0  0  0  0  0  0  0  0  0  0
   -0.4865  -12.7719   13.1732 H   0  0  0  0  0  0  0  0  0  0  0  0
   -1.5912  -15.0379   12.1323 H   0  0  0  0  0  0  0  0  0  0  0  0
    0.7200  -13.4455    9.2243 H   0  0  0  0  0  0  0  0  0  0  0  0
  1  2  1  0
  2  3  1  0
  3  4  1  0
  4  5  1  0
  5  6  1  0
  6  7  2  0
  7  8  1  0
  8  9  1  0
  8 10  1  0
 10 11  2  0
 11 12  1  0
 12 13  2  0
 13 14  1  0
 14 15  2  0
  2 16  1  0
 16 17  2  0
 17 18  1  0
 18 19  2  0
 19 20  1  0
 15  6  1  0
 20 16  1  0
 15 10  1  0
  1 21  1  0
  1 22  1  0
  1 23  1  0
  2 24  1  0
  3 25  1  0
  4 26  1  0
  4 27  1  0
  5 28  1  0
  5 29  1  0
  7 30  1  0
  9 31  1  0
  9 32  1  0
  9 33  1  0
 11 34  1  0
 12 35  1  0
 13 36  1  0
 14 37  1  0
 17 38  1  0
 18 39  1  0
 20 40  1  0
M  END
>  <Energy>  (443) 
608.19063762062979

>  <compound_id>  (443) 
25413

>  <target_id>  (443) 
1

>  <reference_id>  (443) 
93

>  <inspiration_ids>  (443) 
[93, 112]

>  <energy_score>  (443) 
561.6187473238301

>  <distance_score>  (443) 
14.01446235606297

>  <path>  (443) 
/opt/xchem-fragalysis-2/maxwin/BulkDock/SCRATCH/511017/C25413-P93/C25413-P93.minimised.mol

>  <scratch_subdir>  (443) 
/opt/xchem-fragalysis-2/maxwin/BulkDock/SCRATCH/511017/C25413-P93

>  <fragmenstein_runtime>  (443) 
9.333473443984985

>  <fragmenstein_outcome>  (443) 
too moved

>  <fragmenstein_mode>  (443) 
expansion

>  <fragmenstein_error>  (443) 


$$$$
C25413-P112
     RDKit          3D

 40 42  0  0  0  0  0  0  0  0999 V2000
    3.6147  -10.7827   10.5700 C   0  0  0  0  0  0  0  0  0  0  0  0
    3.3370   -9.8723   12.0364 C   0  0  0  0  0  0  0  0  0  0  0  0
    4.4763   -8.9311   13.5244 N   0  0  0  0  0  0  0  0  0  0  0  0
    6.1382   -7.6950   13.9322 C   0  0  0  0  0  0  0  0  0  0  0  0
    7.9212   -6.7268   14.7392 C   0  0  0  0  0  0  0  0  0  0  0  0
    9.9879   -6.6273   15.1799 C   0  0  0  0  0  0  0  0  0  0  0  0
   10.8426   -5.0604   14.6714 C   0  0  0  0  0  0  0  0  0  0  0  0
   10.7569   -3.8933   15.4668 N   0  0  0  0  0  0  0  0  0  0  0  0
   10.7938   -2.5364   14.9540 C   0  0  0  0  0  0  0  0  0  0  0  0
   11.3494   -4.3486   16.6099 C   0  0  0  0  0  0  0  0  0  0  0  0
   12.3306   -3.6131   17.3226 C   0  0  0  0  0  0  0  0  0  0  0  0
   13.6207   -3.7448   16.8572 C   0  0  0  0  0  0  0  0  0  0  0  0
   13.8837   -4.7840   16.0145 C   0  0  0  0  0  0  0  0  0  0  0  0
   12.8820   -5.7843   15.8067 C   0  0  0  0  0  0  0  0  0  0  0  0
   11.4247   -5.7223   16.1107 C   0  0  0  0  0  0  0  0  0  0  0  0
    1.5111  -10.4473   11.5319 C   0  0  0  0  0  0  0  0  0  0  0  0
    0.8525  -11.6377   11.0567 C   0  0  0  0  0  0  0  0  0  0  0  0
   -0.5301  -11.4081   10.9499 C   0  0  0  0  0  0  0  0  0  0  0  0
   -0.7933  -10.1224   11.1165 N   0  0  0  0  0  0  0  0  0  0  0  0
    0.4398   -9.5652   11.2054 N   0  0  0  0  0  0  0  0  0  0  0  0
    2.7843  -10.9190    9.8723 H   0  0  0  0  0  0  0  0  0  0  0  0
    3.9145  -11.8260   10.6561 H   0  0  0  0  0  0  0  0  0  0  0  0
    4.2610  -10.1356   10.0124 H   0  0  0  0  0  0  0  0  0  0  0  0
    3.3171   -8.8548   11.5732 H   0  0  0  0  0  0  0  0  0  0  0  0
    3.7848   -8.1932   13.6651 H   0  0  0  0  0  0  0  0  0  0  0  0
    6.7314   -8.5398   13.9261 H   0  0  0  0  0  0  0  0  0  0  0  0
    6.0681   -7.1413   13.0024 H   0  0  0  0  0  0  0  0  0  0  0  0
    8.2744   -6.6790   13.7504 H   0  0  0  0  0  0  0  0  0  0  0  0
    7.4560   -5.9956   15.4120 H   0  0  0  0  0  0  0  0  0  0  0  0
   10.9706   -4.6695   13.6742 H   0  0  0  0  0  0  0  0  0  0  0  0
   11.3684   -2.5107   14.0250 H   0  0  0  0  0  0  0  0  0  0  0  0
    9.7617   -2.2256   14.7834 H   0  0  0  0  0  0  0  0  0  0  0  0
   11.2446   -1.8617   15.6840 H   0  0  0  0  0  0  0  0  0  0  0  0
   12.0970   -2.6794   17.8164 H   0  0  0  0  0  0  0  0  0  0  0  0
   14.3971   -3.0462   17.1455 H   0  0  0  0  0  0  0  0  0  0  0  0
   14.8818   -4.9271   15.6134 H   0  0  0  0  0  0  0  0  0  0  0  0
   13.2327   -6.6854   15.3553 H   0  0  0  0  0  0  0  0  0  0  0  0
    1.2701  -12.6021   10.8342 H   0  0  0  0  0  0  0  0  0  0  0  0
   -1.3262  -12.1032   10.7191 H   0  0  0  0  0  0  0  0  0  0  0  0
    0.5055   -8.5567   11.2596 H   0  0  0  0  0  0  0  0  0  0  0  0
  1  2  1  0
  2  3  1  0
  3  4  1  0
  4  5  1  0
  5  6  1  0
  6  7  2  0
  7  8  1  0
  8  9  1  0
  8 10  1  0
 10 11  2  0
 11 12  1  0
 12 13  2  0
 13 14  1  0
 14 15  2  0
  2 16  1  0
 16 17  2  0
 17 18  1  0
 18 19  2  0
 19 20  1  0
 15  6  1  0
 20 16  1  0
 15 10  1  0
  1 21  1  0
  1 22  1  0
  1 23  1  0
  2 24  1  0
  3 25  1  0
  4 26  1  0
  4 27  1  0
  5 28  1  0
  5 29  1  0
  7 30  1  0
  9 31  1  0
  9 32  1  0
  9 33  1  0
 11 34  1  0
 12 35  1  0
 13 36  1  0
 14 37  1  0
 17 38  1  0
 18 39  1  0
 20 40  1  0
M  END
>  <Energy>  (444) 
1134.540751783727

>  <compound_id>  (444) 
25413

>  <target_id>  (444) 
1

>  <reference_id>  (444) 
112

>  <inspiration_ids>  (444) 
[93, 112]

>  <energy_score>  (444) 
1087.9688614869424

>  <distance_score>  (444) 
14.067842332105045

>  <path>  (444) 
/opt/xchem-fragalysis-2/maxwin/BulkDock/SCRATCH/511017/C25413-P112/C25413-P112.minimised.mol

>  <scratch_subdir>  (444) 
/opt/xchem-fragalysis-2/maxwin/BulkDock/SCRATCH/511017/C25413-P112

>  <fragmenstein_runtime>  (444) 
7.891822814941406

>  <fragmenstein_outcome>  (444) 
too moved

>  <fragmenstein_mode>  (444) 
expansion

>  <fragmenstein_error>  (444) 


$$$$
C25414-P93
     RDKit          3D

 37 39  0  0  0  0  0  0  0  0999 V2000
   -1.5923  -16.6961   11.2001 C   0  0  0  0  0  0  0  0  0  0  0  0
   -2.7067  -15.7543   10.7240 C   0  0  0  0  0  0  0  0  0  0  0  0
   -2.4669  -14.2996   11.0925 N   0  0  0  0  0  0  0  0  0  0  0  0
   -1.1286  -13.6894   10.5854 C   0  0  0  0  0  0  0  0  0  0  0  0
   -0.8019  -12.0721   10.7093 C   0  0  0  0  0  0  0  0  0  0  0  0
    0.6160  -11.5312   10.1778 C   0  0  0  0  0  0  0  0  0  0  0  0
    1.5973  -12.3721    9.6783 C   0  0  0  0  0  0  0  0  0  0  0  0
    2.6972  -11.6615    9.2975 N   0  0  0  0  0  0  0  0  0  0  0  0
    2.4816  -10.3181    9.4326 C   0  0  0  0  0  0  0  0  0  0  0  0
    3.3289   -9.2618    9.0435 C   0  0  0  0  0  0  0  0  0  0  0  0
    2.9699   -7.9537    9.3299 C   0  0  0  0  0  0  0  0  0  0  0  0
    1.7439   -7.7152    9.9176 C   0  0  0  0  0  0  0  0  0  0  0  0
    0.8580   -8.7827   10.2260 C   0  0  0  0  0  0  0  0  0  0  0  0
   -0.7725   -8.2473   11.0115 Br  0  0  0  0  0  0  0  0  0  0  0  0
    1.2081  -10.1542   10.0102 C   0  0  0  0  0  0  0  0  0  0  0  0
   -4.0096  -16.3681   11.2285 C   0  0  0  0  0  0  0  0  0  0  0  0
   -4.6864  -17.5035   10.7985 C   0  0  0  0  0  0  0  0  0  0  0  0
   -5.6927  -17.7396   11.7542 C   0  0  0  0  0  0  0  0  0  0  0  0
   -5.7072  -16.7980   12.6997 N   0  0  0  0  0  0  0  0  0  0  0  0
   -4.6586  -16.0061   12.3798 N   0  0  0  0  0  0  0  0  0  0  0  0
   -1.4859  -16.6664   12.2908 H   0  0  0  0  0  0  0  0  0  0  0  0
   -0.6271  -16.4257   10.7599 H   0  0  0  0  0  0  0  0  0  0  0  0
   -1.7873  -17.7361   10.9131 H   0  0  0  0  0  0  0  0  0  0  0  0
   -2.7406  -15.7931    9.6271 H   0  0  0  0  0  0  0  0  0  0  0  0
   -3.2135  -13.7600   10.6514 H   0  0  0  0  0  0  0  0  0  0  0  0
   -1.0409  -13.9450    9.5228 H   0  0  0  0  0  0  0  0  0  0  0  0
   -0.3245  -14.2002   11.1264 H   0  0  0  0  0  0  0  0  0  0  0  0
   -1.5793  -11.5322   10.1564 H   0  0  0  0  0  0  0  0  0  0  0  0
   -0.8731  -11.7971   11.7677 H   0  0  0  0  0  0  0  0  0  0  0  0
    1.5889  -13.4431    9.5377 H   0  0  0  0  0  0  0  0  0  0  0  0
    3.5232  -12.0649    8.8803 H   0  0  0  0  0  0  0  0  0  0  0  0
    4.2483   -9.4680    8.5080 H   0  0  0  0  0  0  0  0  0  0  0  0
    3.6284   -7.1314    9.0679 H   0  0  0  0  0  0  0  0  0  0  0  0
    1.4538   -6.6888   10.1289 H   0  0  0  0  0  0  0  0  0  0  0  0
   -4.4276  -18.1256    9.9535 H   0  0  0  0  0  0  0  0  0  0  0  0
   -6.3990  -18.5596   11.7971 H   0  0  0  0  0  0  0  0  0  0  0  0
   -4.4105  -15.2468   13.0052 H   0  0  0  0  0  0  0  0  0  0  0  0
  1  2  1  0
  2  3  1  0
  3  4  1  0
  4  5  1  0
  5  6  1  0
  6  7  2  0
  7  8  1  0
  8  9  1  0
  9 10  2  0
 10 11  1  0
 11 12  2  0
 12 13  1  0
 13 14  1  0
 13 15  2  0
  2 16  1  0
 16 17  2  0
 17 18  1  0
 18 19  2  0
 19 20  1  0
 15  6  1  0
 20 16  1  0
 15  9  1  0
  1 21  1  0
  1 22  1  0
  1 23  1  0
  2 24  1  0
  3 25  1  0
  4 26  1  0
  4 27  1  0
  5 28  1  0
  5 29  1  0
  7 30  1  0
  8 31  1  0
 10 32  1  0
 11 33  1  0
 12 34  1  0
 17 35  1  0
 18 36  1  0
 20 37  1  0
M  END
>  <Energy>  (445) 
51.223178264193123

>  <compound_id>  (445) 
25414

>  <target_id>  (445) 
1

>  <reference_id>  (445) 
93

>  <inspiration_ids>  (445) 
[93, 112]

>  <energy_score>  (445) 
-11.69951210761883

>  <distance_score>  (445) 
14.087514497458491

>  <path>  (445) 
/opt/xchem-fragalysis-2/maxwin/BulkDock/SCRATCH/511017/C25414-P93/C25414-P93.minimised.mol

>  <scratch_subdir>  (445) 
/opt/xchem-fragalysis-2/maxwin/BulkDock/SCRATCH/511017/C25414-P93

>  <fragmenstein_runtime>  (445) 
11.981577396392822

>  <fragmenstein_outcome>  (445) 
too moved

>  <fragmenstein_mode>  (445) 
expansion

>  <fragmenstein_error>  (445) 


$$$$
C25414-P112
     RDKit          3D

 37 39  0  0  0  0  0  0  0  0999 V2000
    3.6229  -10.6913   10.7060 C   0  0  0  0  0  0  0  0  0  0  0  0
    3.4506   -9.9099   12.3744 C   0  0  0  0  0  0  0  0  0  0  0  0
    4.3940   -8.4657   13.5154 N   0  0  0  0  0  0  0  0  0  0  0  0
    6.0913   -7.4308   14.1075 C   0  0  0  0  0  0  0  0  0  0  0  0
    7.0801   -5.9313   15.3750 C   0  0  0  0  0  0  0  0  0  0  0  0
    8.0868   -4.0242   15.5362 C   0  0  0  0  0  0  0  0  0  0  0  0
    9.3915   -3.4818   15.0501 C   0  0  0  0  0  0  0  0  0  0  0  0
    9.1718   -2.2322   14.4310 N   0  0  0  0  0  0  0  0  0  0  0  0
    7.7627   -2.1113   14.0475 C   0  0  0  0  0  0  0  0  0  0  0  0
    6.9815   -1.1685   13.2938 C   0  0  0  0  0  0  0  0  0  0  0  0
    6.2738   -0.1802   13.9580 C   0  0  0  0  0  0  0  0  0  0  0  0
    6.6034    0.0101   15.2673 C   0  0  0  0  0  0  0  0  0  0  0  0
    7.5027   -0.9179   15.7956 C   0  0  0  0  0  0  0  0  0  0  0  0
    9.0975    0.0254   16.4109 Br  0  0  0  0  0  0  0  0  0  0  0  0
    7.4137   -2.3664   15.3163 C   0  0  0  0  0  0  0  0  0  0  0  0
    1.6056  -10.4690   11.7059 C   0  0  0  0  0  0  0  0  0  0  0  0
    0.6227  -11.5731   11.7584 C   0  0  0  0  0  0  0  0  0  0  0  0
   -0.5245  -11.2778   11.0108 C   0  0  0  0  0  0  0  0  0  0  0  0
   -0.4551  -10.0522   10.5386 N   0  0  0  0  0  0  0  0  0  0  0  0
    0.7326   -9.5892   10.9799 N   0  0  0  0  0  0  0  0  0  0  0  0
    4.2481  -10.0391   10.1280 H   0  0  0  0  0  0  0  0  0  0  0  0
    3.9289  -11.7420   10.6927 H   0  0  0  0  0  0  0  0  0  0  0  0
    2.7451  -10.8351   10.0676 H   0  0  0  0  0  0  0  0  0  0  0  0
    3.5570  -10.4028   13.3641 H   0  0  0  0  0  0  0  0  0  0  0  0
    3.9055   -7.6890   13.0739 H   0  0  0  0  0  0  0  0  0  0  0  0
    5.2845   -6.8640   14.2636 H   0  0  0  0  0  0  0  0  0  0  0  0
    6.4797   -7.3061   13.0925 H   0  0  0  0  0  0  0  0  0  0  0  0
    6.6465   -6.0544   16.3717 H   0  0  0  0  0  0  0  0  0  0  0  0
    8.0176   -6.3762   15.0682 H   0  0  0  0  0  0  0  0  0  0  0  0
   10.3787   -3.9200   14.9297 H   0  0  0  0  0  0  0  0  0  0  0  0
    9.8647   -1.7218   13.8983 H   0  0  0  0  0  0  0  0  0  0  0  0
    6.9654   -1.1742   12.2079 H   0  0  0  0  0  0  0  0  0  0  0  0
    5.6816    0.5433   13.4083 H   0  0  0  0  0  0  0  0  0  0  0  0
    6.4180    0.9741   15.7300 H   0  0  0  0  0  0  0  0  0  0  0  0
    0.6215  -12.5047   12.3173 H   0  0  0  0  0  0  0  0  0  0  0  0
   -1.4048  -11.8815   10.8363 H   0  0  0  0  0  0  0  0  0  0  0  0
    0.9068   -8.6001   10.8645 H   0  0  0  0  0  0  0  0  0  0  0  0
  1  2  1  0
  2  3  1  0
  3  4  1  0
  4  5  1  0
  5  6  1  0
  6  7  2  0
  7  8  1  0
  8  9  1  0
  9 10  2  0
 10 11  1  0
 11 12  2  0
 12 13  1  0
 13 14  1  0
 13 15  2  0
  2 16  1  0
 16 17  2  0
 17 18  1  0
 18 19  2  0
 19 20  1  0
 15  6  1  0
 20 16  1  0
 15  9  1  0
  1 21  1  0
  1 22  1  0
  1 23  1  0
  2 24  1  0
  3 25  1  0
  4 26  1  0
  4 27  1  0
  5 28  1  0
  5 29  1  0
  7 30  1  0
  8 31  1  0
 10 32  1  0
 11 33  1  0
 12 34  1  0
 17 35  1  0
 18 36  1  0
 20 37  1  0
M  END
>  <Energy>  (446) 
1033.7940728818194

>  <compound_id>  (446) 
25414

>  <target_id>  (446) 
1

>  <reference_id>  (446) 
112

>  <inspiration_ids>  (446) 
[93, 112]

>  <energy_score>  (446) 
970.8713825100081

>  <distance_score>  (446) 
14.547311981010163

>  <path>  (446) 
/opt/xchem-fragalysis-2/maxwin/BulkDock/SCRATCH/511017/C25414-P112/C25414-P112.minimised.mol

>  <scratch_subdir>  (446) 
/opt/xchem-fragalysis-2/maxwin/BulkDock/SCRATCH/511017/C25414-P112

>  <fragmenstein_runtime>  (446) 
6.542391300201416

>  <fragmenstein_outcome>  (446) 
too moved

>  <fragmenstein_mode>  (446) 
expansion

>  <fragmenstein_error>  (446) 


$$$$
C25415-P93
     RDKit          3D

 37 39  0  0  0  0  0  0  0  0999 V2000
   -3.1794  -18.8644   11.3051 C   0  0  0  0  0  0  0  0  0  0  0  0
   -3.7473  -17.4774   11.6353 C   0  0  0  0  0  0  0  0  0  0  0  0
   -3.1806  -16.4697   10.6771 N   0  0  0  0  0  0  0  0  0  0  0  0
   -2.0119  -15.6235   11.1670 C   0  0  0  0  0  0  0  0  0  0  0  0
   -1.3957  -14.6745   10.0493 C   0  0  0  0  0  0  0  0  0  0  0  0
   -0.3048  -13.5839   10.3589 C   0  0  0  0  0  0  0  0  0  0  0  0
   -0.3273  -12.5916   11.3282 C   0  0  0  0  0  0  0  0  0  0  0  0
    0.7105  -11.7128   11.1065 N   0  0  0  0  0  0  0  0  0  0  0  0
    1.4979  -12.1330   10.0678 C   0  0  0  0  0  0  0  0  0  0  0  0
    2.6932  -11.5987    9.5586 C   0  0  0  0  0  0  0  0  0  0  0  0
    3.2257  -12.1709    8.4033 C   0  0  0  0  0  0  0  0  0  0  0  0
    4.5715  -11.4884    7.5681 Cl  0  0  0  0  0  0  0  0  0  0  0  0
    2.6431  -13.2996    7.8573 C   0  0  0  0  0  0  0  0  0  0  0  0
    1.4898  -13.8607    8.4272 C   0  0  0  0  0  0  0  0  0  0  0  0
    0.8803  -13.2729    9.5543 C   0  0  0  0  0  0  0  0  0  0  0  0
   -5.2669  -17.4951   11.5912 C   0  0  0  0  0  0  0  0  0  0  0  0
   -6.1907  -16.4700   11.6870 C   0  0  0  0  0  0  0  0  0  0  0  0
   -7.4478  -17.0649   11.4949 C   0  0  0  0  0  0  0  0  0  0  0  0
   -7.3515  -18.3739   11.2974 N   0  0  0  0  0  0  0  0  0  0  0  0
   -6.0417  -18.6382   11.5179 N   0  0  0  0  0  0  0  0  0  0  0  0
   -3.4886  -19.2062   10.3103 H   0  0  0  0  0  0  0  0  0  0  0  0
   -2.0838  -18.8471   11.3266 H   0  0  0  0  0  0  0  0  0  0  0  0
   -3.5023  -19.6115   12.0390 H   0  0  0  0  0  0  0  0  0  0  0  0
   -3.4590  -17.2011   12.6574 H   0  0  0  0  0  0  0  0  0  0  0  0
   -3.9257  -15.8299   10.4058 H   0  0  0  0  0  0  0  0  0  0  0  0
   -1.2202  -16.2873   11.5315 H   0  0  0  0  0  0  0  0  0  0  0  0
   -2.3559  -15.0091   12.0064 H   0  0  0  0  0  0  0  0  0  0  0  0
   -0.9923  -15.3246    9.2624 H   0  0  0  0  0  0  0  0  0  0  0  0
   -2.2295  -14.1229    9.5927 H   0  0  0  0  0  0  0  0  0  0  0  0
   -1.0270  -12.4053   12.1317 H   0  0  0  0  0  0  0  0  0  0  0  0
    0.9346  -10.9074   11.6742 H   0  0  0  0  0  0  0  0  0  0  0  0
    3.1574  -10.7515   10.0383 H   0  0  0  0  0  0  0  0  0  0  0  0
    3.0616  -13.7588    6.9649 H   0  0  0  0  0  0  0  0  0  0  0  0
    1.0521  -14.7486    7.9782 H   0  0  0  0  0  0  0  0  0  0  0  0
   -5.9765  -15.4208   11.8302 H   0  0  0  0  0  0  0  0  0  0  0  0
   -8.4219  -16.5954   11.4623 H   0  0  0  0  0  0  0  0  0  0  0  0
   -5.7564  -19.6246   11.5023 H   0  0  0  0  0  0  0  0  0  0  0  0
  1  2  1  0
  2  3  1  0
  3  4  1  0
  4  5  1  0
  5  6  1  0
  6  7  2  0
  7  8  1  0
  8  9  1  0
  9 10  2  0
 10 11  1  0
 11 12  1  0
 11 13  2  0
 13 14  1  0
 14 15  2  0
  2 16  1  0
 16 17  2  0
 17 18  1  0
 18 19  2  0
 19 20  1  0
 15  6  1  0
 20 16  1  0
 15  9  1  0
  1 21  1  0
  1 22  1  0
  1 23  1  0
  2 24  1  0
  3 25  1  0
  4 26  1  0
  4 27  1  0
  5 28  1  0
  5 29  1  0
  7 30  1  0
  8 31  1  0
 10 32  1  0
 13 33  1  0
 14 34  1  0
 17 35  1  0
 18 36  1  0
 20 37  1  0
M  END
>  <Energy>  (447) 
32.746576564060142

>  <compound_id>  (447) 
25415

>  <target_id>  (447) 
1

>  <reference_id>  (447) 
93

>  <inspiration_ids>  (447) 
[93, 112]

>  <energy_score>  (447) 
-7.552179653079293

>  <distance_score>  (447) 
14.696675472583205

>  <path>  (447) 
/opt/xchem-fragalysis-2/maxwin/BulkDock/SCRATCH/511017/C25415-P93/C25415-P93.minimised.mol

>  <scratch_subdir>  (447) 
/opt/xchem-fragalysis-2/maxwin/BulkDock/SCRATCH/511017/C25415-P93

>  <fragmenstein_runtime>  (447) 
12.36699652671814

>  <fragmenstein_outcome>  (447) 
too moved

>  <fragmenstein_mode>  (447) 
expansion

>  <fragmenstein_error>  (447) 


$$$$
C25415-P112
     RDKit          3D

 37 39  0  0  0  0  0  0  0  0999 V2000
   -2.2348  -20.7105   12.4614 C   0  0  0  0  0  0  0  0  0  0  0  0
   -1.4049  -20.4687   13.7465 C   0  0  0  0  0  0  0  0  0  0  0  0
    0.0477  -20.4506   13.4162 N   0  0  0  0  0  0  0  0  0  0  0  0
    0.9405  -19.6065   14.2944 C   0  0  0  0  0  0  0  0  0  0  0  0
    2.3951  -19.3942   13.6997 C   0  0  0  0  0  0  0  0  0  0  0  0
    3.4738  -18.5712   14.4671 C   0  0  0  0  0  0  0  0  0  0  0  0
    3.3736  -17.9086   15.6774 C   0  0  0  0  0  0  0  0  0  0  0  0
    4.5997  -17.3981   16.0261 N   0  0  0  0  0  0  0  0  0  0  0  0
    5.5513  -17.7740   15.1099 C   0  0  0  0  0  0  0  0  0  0  0  0
    6.9504  -17.6624   15.1222 C   0  0  0  0  0  0  0  0  0  0  0  0
    7.6828  -18.2043   14.0733 C   0  0  0  0  0  0  0  0  0  0  0  0
    9.4033  -18.2200   14.1481 Cl  0  0  0  0  0  0  0  0  0  0  0  0
    7.0325  -18.7524   12.9822 C   0  0  0  0  0  0  0  0  0  0  0  0
    5.6300  -18.8397   12.9622 C   0  0  0  0  0  0  0  0  0  0  0  0
    4.8675  -18.4064   14.0703 C   0  0  0  0  0  0  0  0  0  0  0  0
   -1.7570  -21.5114   14.7620 C   0  0  0  0  0  0  0  0  0  0  0  0
   -1.7410  -22.8939   14.7443 C   0  0  0  0  0  0  0  0  0  0  0  0
   -2.3051  -23.2876   15.9734 C   0  0  0  0  0  0  0  0  0  0  0  0
   -2.6350  -22.2424   16.7352 N   0  0  0  0  0  0  0  0  0  0  0  0
   -2.3129  -21.1881   15.9713 N   0  0  0  0  0  0  0  0  0  0  0  0
   -2.0320  -21.6949   12.0243 H   0  0  0  0  0  0  0  0  0  0  0  0
   -2.0005  -19.9527   11.7049 H   0  0  0  0  0  0  0  0  0  0  0  0
   -3.3068  -20.6409   12.6624 H   0  0  0  0  0  0  0  0  0  0  0  0
   -1.6893  -19.4745   14.1149 H   0  0  0  0  0  0  0  0  0  0  0  0
    0.1527  -20.1178   12.4592 H   0  0  0  0  0  0  0  0  0  0  0  0
    1.0201  -20.0818   15.2780 H   0  0  0  0  0  0  0  0  0  0  0  0
    0.4792  -18.6228   14.4284 H   0  0  0  0  0  0  0  0  0  0  0  0
    2.8280  -20.3896   13.5308 H   0  0  0  0  0  0  0  0  0  0  0  0
    2.2891  -18.9262   12.7120 H   0  0  0  0  0  0  0  0  0  0  0  0
    2.5319  -17.7747   16.3442 H   0  0  0  0  0  0  0  0  0  0  0  0
    4.7749  -16.9351   16.9043 H   0  0  0  0  0  0  0  0  0  0  0  0
    7.4778  -17.1742   15.9147 H   0  0  0  0  0  0  0  0  0  0  0  0
    7.6009  -19.1645   12.1530 H   0  0  0  0  0  0  0  0  0  0  0  0
    5.1374  -19.3396   12.1321 H   0  0  0  0  0  0  0  0  0  0  0  0
   -1.4011  -23.5253   13.9368 H   0  0  0  0  0  0  0  0  0  0  0  0
   -2.4917  -24.2873   16.3429 H   0  0  0  0  0  0  0  0  0  0  0  0
   -2.4980  -20.2638   16.3409 H   0  0  0  0  0  0  0  0  0  0  0  0
  1  2  1  0
  2  3  1  0
  3  4  1  0
  4  5  1  0
  5  6  1  0
  6  7  2  0
  7  8  1  0
  8  9  1  0
  9 10  2  0
 10 11  1  0
 11 12  1  0
 11 13  2  0
 13 14  1  0
 14 15  2  0
  2 16  1  0
 16 17  2  0
 17 18  1  0
 18 19  2  0
 19 20  1  0
 15  6  1  0
 20 16  1  0
 15  9  1  0
  1 21  1  0
  1 22  1  0
  1 23  1  0
  2 24  1  0
  3 25  1  0
  4 26  1  0
  4 27  1  0
  5 28  1  0
  5 29  1  0
  7 30  1  0
  8 31  1  0
 10 32  1  0
 13 33  1  0
 14 34  1  0
 17 35  1  0
 18 36  1  0
 20 37  1  0
M  END
>  <Energy>  (448) 
27.365584516835387

>  <compound_id>  (448) 
25415

>  <target_id>  (448) 
1

>  <reference_id>  (448) 
112

>  <inspiration_ids>  (448) 
[93, 112]

>  <energy_score>  (448) 
-12.933171700306133

>  <distance_score>  (448) 
15.151245524825455

>  <path>  (448) 
/opt/xchem-fragalysis-2/maxwin/BulkDock/SCRATCH/511017/C25415-P112/C25415-P112.minimised.mol

>  <scratch_subdir>  (448) 
/opt/xchem-fragalysis-2/maxwin/BulkDock/SCRATCH/511017/C25415-P112

>  <fragmenstein_runtime>  (448) 
9.116811037063599

>  <fragmenstein_outcome>  (448) 
too moved

>  <fragmenstein_mode>  (448) 
expansion

>  <fragmenstein_error>  (448) 


$$$$
C25416-P93
     RDKit          3D

 39 41  0  0  0  0  0  0  0  0999 V2000
    8.0740   -0.7176   15.5447 C   0  0  0  0  0  0  0  0  0  0  0  0
    7.3373   -1.7703   14.6826 C   0  0  0  0  0  0  0  0  0  0  0  0
    7.0661   -3.0779   15.2100 O   0  0  0  0  0  0  0  0  0  0  0  0
    8.0763   -4.3847   15.6898 C   0  0  0  0  0  0  0  0  0  0  0  0
    9.4128   -3.4192   15.0713 C   0  0  0  0  0  0  0  0  0  0  0  0
   10.6266   -3.8535   14.9497 C   0  0  0  0  0  0  0  0  0  0  0  0
   10.1173   -4.9790   14.4421 C   0  0  0  0  0  0  0  0  0  0  0  0
    8.5130   -6.1216   14.4739 C   0  0  0  0  0  0  0  0  0  0  0  0
    8.0412   -7.1924   13.0926 N   0  0  0  0  0  0  0  0  0  0  0  0
    6.8343   -7.7228   13.1244 C   0  0  0  0  0  0  0  0  0  0  0  0
    6.4034   -7.6826   14.4110 C   0  0  0  0  0  0  0  0  0  0  0  0
    5.2606   -9.3105   14.0262 C   0  0  0  0  0  0  0  0  0  0  0  0
    4.0482  -10.2784   13.5590 C   0  0  0  0  0  0  0  0  0  0  0  0
    3.7670  -11.0541   14.4680 O   0  0  0  0  0  0  0  0  0  0  0  0
    3.2653  -10.5043   12.1641 O   0  0  0  0  0  0  0  0  0  0  0  0
    2.1679  -11.1991   11.0021 C   0  0  0  0  0  0  0  0  0  0  0  0
    0.7011  -11.7389   11.2559 C   0  0  0  0  0  0  0  0  0  0  0  0
    0.1250  -13.0115   11.1178 C   0  0  0  0  0  0  0  0  0  0  0  0
   -1.2327  -12.8969   11.4716 C   0  0  0  0  0  0  0  0  0  0  0  0
   -1.5566  -11.6283   11.7102 N   0  0  0  0  0  0  0  0  0  0  0  0
   -0.4092  -10.9505   11.4615 N   0  0  0  0  0  0  0  0  0  0  0  0
    7.3311   -6.2038   15.5318 C   0  0  0  0  0  0  0  0  0  0  0  0
    7.3831   -0.2785   16.2708 H   0  0  0  0  0  0  0  0  0  0  0  0
    8.9142   -1.0686   16.1352 H   0  0  0  0  0  0  0  0  0  0  0  0
    8.4782    0.0778   14.9130 H   0  0  0  0  0  0  0  0  0  0  0  0
    7.7053   -1.8566   13.6703 H   0  0  0  0  0  0  0  0  0  0  0  0
    6.3230   -1.3974   14.5247 H   0  0  0  0  0  0  0  0  0  0  0  0
    9.3651   -2.3661   14.9189 H   0  0  0  0  0  0  0  0  0  0  0  0
   11.4988   -3.3110   14.6394 H   0  0  0  0  0  0  0  0  0  0  0  0
   10.7573   -5.0603   13.5266 H   0  0  0  0  0  0  0  0  0  0  0  0
    8.5133   -7.2486   12.2206 H   0  0  0  0  0  0  0  0  0  0  0  0
    6.7175   -8.0555   12.1706 H   0  0  0  0  0  0  0  0  0  0  0  0
    6.1577  -10.0916   13.8246 H   0  0  0  0  0  0  0  0  0  0  0  0
    5.2944  -10.1872   14.6688 H   0  0  0  0  0  0  0  0  0  0  0  0
    2.7928  -11.9493   10.5052 H   0  0  0  0  0  0  0  0  0  0  0  0
    2.0587  -10.3811   10.3118 H   0  0  0  0  0  0  0  0  0  0  0  0
    0.6104  -13.9261   10.8234 H   0  0  0  0  0  0  0  0  0  0  0  0
   -1.9885  -13.6687   11.5410 H   0  0  0  0  0  0  0  0  0  0  0  0
   -0.4304   -9.9377   11.5200 H   0  0  0  0  0  0  0  0  0  0  0  0
  1  2  1  0
  2  3  1  0
  3  4  1  0
  4  5  2  0
  5  6  1  0
  6  7  2  0
  7  8  1  0
  8  9  1  0
  9 10  1  0
 10 11  2  0
 11 12  1  0
 12 13  1  0
 13 14  2  0
 13 15  1  0
 15 16  1  0
 16 17  1  0
 17 18  2  0
 18 19  1  0
 19 20  2  0
 20 21  1  0
 11 22  1  0
 22  4  1  0
 22  8  2  0
 21 17  1  0
  1 23  1  0
  1 24  1  0
  1 25  1  0
  2 26  1  0
  2 27  1  0
  5 28  1  0
  6 29  1  0
  7 30  1  0
  9 31  1  0
 10 32  1  0
 12 33  1  0
 12 34  1  0
 16 35  1  0
 16 36  1  0
 18 37  1  0
 19 38  1  0
 21 39  1  0
M  END
>  <Energy>  (449) 
1024.8208616067825

>  <compound_id>  (449) 
25416

>  <target_id>  (449) 
1

>  <reference_id>  (449) 
93

>  <inspiration_ids>  (449) 
[93, 112]

>  <energy_score>  (449) 
957.7559839827225

>  <distance_score>  (449) 
12.922425960259027

>  <path>  (449) 
/opt/xchem-fragalysis-2/maxwin/BulkDock/SCRATCH/511017/C25416-P93/C25416-P93.minimised.mol

>  <scratch_subdir>  (449) 
/opt/xchem-fragalysis-2/maxwin/BulkDock/SCRATCH/511017/C25416-P93

>  <fragmenstein_runtime>  (449) 
10.498172283172607

>  <fragmenstein_outcome>  (449) 
too moved

>  <fragmenstein_mode>  (449) 
expansion

>  <fragmenstein_error>  (449) 


$$$$
C25416-P112
     RDKit          3D

 39 41  0  0  0  0  0  0  0  0999 V2000
    6.4057   -0.8625   15.0616 C   0  0  0  0  0  0  0  0  0  0  0  0
    6.2286   -2.2404   14.3964 C   0  0  0  0  0  0  0  0  0  0  0  0
    5.8037   -3.5079   15.2388 O   0  0  0  0  0  0  0  0  0  0  0  0
    6.7078   -5.1319   15.7386 C   0  0  0  0  0  0  0  0  0  0  0  0
    7.9274   -3.6689   15.6088 C   0  0  0  0  0  0  0  0  0  0  0  0
    8.9635   -3.3124   14.9585 C   0  0  0  0  0  0  0  0  0  0  0  0
    8.9581   -4.6236   14.5249 C   0  0  0  0  0  0  0  0  0  0  0  0
    8.1914   -6.3767   14.5254 C   0  0  0  0  0  0  0  0  0  0  0  0
    7.5334   -7.1769   12.9803 N   0  0  0  0  0  0  0  0  0  0  0  0
    6.6355   -7.8730   13.7947 C   0  0  0  0  0  0  0  0  0  0  0  0
    5.3167   -7.5900   13.7976 C   0  0  0  0  0  0  0  0  0  0  0  0
    4.2519   -9.3125   13.3210 C   0  0  0  0  0  0  0  0  0  0  0  0
    3.1373  -10.0679   11.6746 C   0  0  0  0  0  0  0  0  0  0  0  0
    1.9122  -10.0250   11.4533 O   0  0  0  0  0  0  0  0  0  0  0  0
    3.7486  -10.8228   10.6946 O   0  0  0  0  0  0  0  0  0  0  0  0
    2.8529  -11.6629    9.6493 C   0  0  0  0  0  0  0  0  0  0  0  0
    1.4321  -12.3520    9.9207 C   0  0  0  0  0  0  0  0  0  0  0  0
    0.2993  -12.1586   10.7096 C   0  0  0  0  0  0  0  0  0  0  0  0
   -0.5581  -13.2658   10.5063 C   0  0  0  0  0  0  0  0  0  0  0  0
   -0.0724  -14.0988    9.5920 N   0  0  0  0  0  0  0  0  0  0  0  0
    1.0852  -13.5112    9.2203 N   0  0  0  0  0  0  0  0  0  0  0  0
    6.5297   -6.6527   15.0841 C   0  0  0  0  0  0  0  0  0  0  0  0
    6.5426   -0.1013   14.2855 H   0  0  0  0  0  0  0  0  0  0  0  0
    5.5263   -0.5784   15.6478 H   0  0  0  0  0  0  0  0  0  0  0  0
    7.2901   -0.8258   15.6991 H   0  0  0  0  0  0  0  0  0  0  0  0
    7.1208   -2.3771   13.8088 H   0  0  0  0  0  0  0  0  0  0  0  0
    5.3917   -2.1157   13.7004 H   0  0  0  0  0  0  0  0  0  0  0  0
    8.1901   -4.1222   16.4594 H   0  0  0  0  0  0  0  0  0  0  0  0
    9.7022   -2.5475   14.9899 H   0  0  0  0  0  0  0  0  0  0  0  0
   10.1795   -4.5819   14.4735 H   0  0  0  0  0  0  0  0  0  0  0  0
    8.1274   -7.2346   12.1685 H   0  0  0  0  0  0  0  0  0  0  0  0
    6.8969   -8.9289   13.8312 H   0  0  0  0  0  0  0  0  0  0  0  0
    5.0349  -10.1125   13.4805 H   0  0  0  0  0  0  0  0  0  0  0  0
    3.7254   -9.7864   14.1404 H   0  0  0  0  0  0  0  0  0  0  0  0
    2.7948  -11.1120    8.7143 H   0  0  0  0  0  0  0  0  0  0  0  0
    3.5465  -12.4764    9.4011 H   0  0  0  0  0  0  0  0  0  0  0  0
    0.1113  -11.3456   11.3929 H   0  0  0  0  0  0  0  0  0  0  0  0
   -1.5078  -13.4807   10.9776 H   0  0  0  0  0  0  0  0  0  0  0  0
    1.6395  -13.9804    8.5133 H   0  0  0  0  0  0  0  0  0  0  0  0
  1  2  1  0
  2  3  1  0
  3  4  1  0
  4  5  2  0
  5  6  1  0
  6  7  2  0
  7  8  1  0
  8  9  1  0
  9 10  1  0
 10 11  2  0
 11 12  1  0
 12 13  1  0
 13 14  2  0
 13 15  1  0
 15 16  1  0
 16 17  1  0
 17 18  2  0
 18 19  1  0
 19 20  2  0
 20 21  1  0
 11 22  1  0
 22  4  1  0
 22  8  2  0
 21 17  1  0
  1 23  1  0
  1 24  1  0
  1 25  1  0
  2 26  1  0
  2 27  1  0
  5 28  1  0
  6 29  1  0
  7 30  1  0
  9 31  1  0
 10 32  1  0
 12 33  1  0
 12 34  1  0
 16 35  1  0
 16 36  1  0
 18 37  1  0
 19 38  1  0
 21 39  1  0
M  END
>  <Energy>  (450) 
1046.6489389766414

>  <compound_id>  (450) 
25416

>  <target_id>  (450) 
1

>  <reference_id>  (450) 
112

>  <inspiration_ids>  (450) 
[93, 112]

>  <energy_score>  (450) 
979.5840613525917

>  <distance_score>  (450) 
13.293831122978036

>  <path>  (450) 
/opt/xchem-fragalysis-2/maxwin/BulkDock/SCRATCH/511017/C25416-P112/C25416-P112.minimised.mol

>  <scratch_subdir>  (450) 
/opt/xchem-fragalysis-2/maxwin/BulkDock/SCRATCH/511017/C25416-P112

>  <fragmenstein_runtime>  (450) 
7.219792604446411

>  <fragmenstein_outcome>  (450) 
too moved

>  <fragmenstein_mode>  (450) 
expansion

>  <fragmenstein_error>  (450) 


$$$$
C25417-P93
     RDKit          3D

 42 44  0  0  0  0  0  0  0  0999 V2000
    6.8036   -2.3420   14.1787 C   0  0  0  0  0  0  0  0  0  0  0  0
    7.9835   -2.6166   15.0023 C   0  0  0  0  0  0  0  0  0  0  0  0
    8.3934   -4.0560   15.4000 C   0  0  0  0  0  0  0  0  0  0  0  0
    7.3714   -5.5337   15.9882 O   0  0  0  0  0  0  0  0  0  0  0  0
    6.2677   -6.0187   16.6918 C   0  0  0  0  0  0  0  0  0  0  0  0
    5.1188   -5.4341   16.9600 C   0  0  0  0  0  0  0  0  0  0  0  0
    4.8670   -5.6044   18.2611 C   0  0  0  0  0  0  0  0  0  0  0  0
    4.2443   -6.9951   18.0369 C   0  0  0  0  0  0  0  0  0  0  0  0
    2.7408   -7.7340   18.0608 N   0  0  0  0  0  0  0  0  0  0  0  0
    2.5364   -9.0010   18.1281 C   0  0  0  0  0  0  0  0  0  0  0  0
    3.7581   -9.4404   17.8265 C   0  0  0  0  0  0  0  0  0  0  0  0
    3.5130  -11.2071   17.1329 C   0  0  0  0  0  0  0  0  0  0  0  0
    3.5350  -12.7229   18.1685 C   0  0  0  0  0  0  0  0  0  0  0  0
    4.3548  -13.0409   19.0417 O   0  0  0  0  0  0  0  0  0  0  0  0
    2.2369  -13.7181   17.9819 O   0  0  0  0  0  0  0  0  0  0  0  0
    2.1130  -15.1436   18.3517 C   0  0  0  0  0  0  0  0  0  0  0  0
    0.7140  -15.7359   18.0532 C   0  0  0  0  0  0  0  0  0  0  0  0
    0.1148  -16.8922   18.5462 C   0  0  0  0  0  0  0  0  0  0  0  0
   -1.1338  -17.0003   17.9035 C   0  0  0  0  0  0  0  0  0  0  0  0
   -1.3438  -15.9914   17.0600 N   0  0  0  0  0  0  0  0  0  0  0  0
   -0.2017  -15.2520   17.1444 N   0  0  0  0  0  0  0  0  0  0  0  0
    5.0402   -8.0347   18.2511 C   0  0  0  0  0  0  0  0  0  0  0  0
    6.2369   -6.9947   17.6591 C   0  0  0  0  0  0  0  0  0  0  0  0
    6.3531   -1.5212   14.6440 H   0  0  0  0  0  0  0  0  0  0  0  0
    7.0116   -2.0127   13.1619 H   0  0  0  0  0  0  0  0  0  0  0  0
    6.0093   -3.0478   14.2924 H   0  0  0  0  0  0  0  0  0  0  0  0
    8.8659   -2.1775   14.5478 H   0  0  0  0  0  0  0  0  0  0  0  0
    7.9224   -1.9380   15.8422 H   0  0  0  0  0  0  0  0  0  0  0  0
    8.7294   -4.6751   14.6155 H   0  0  0  0  0  0  0  0  0  0  0  0
    9.5515   -4.0076   15.4235 H   0  0  0  0  0  0  0  0  0  0  0  0
    4.6896   -4.5390   16.5180 H   0  0  0  0  0  0  0  0  0  0  0  0
    4.4259   -4.8057   18.8862 H   0  0  0  0  0  0  0  0  0  0  0  0
    1.9114   -7.4703   17.5920 H   0  0  0  0  0  0  0  0  0  0  0  0
    1.5356   -9.3359   18.0742 H   0  0  0  0  0  0  0  0  0  0  0  0
    2.5695  -10.9096   16.9853 H   0  0  0  0  0  0  0  0  0  0  0  0
    3.8404  -11.3523   16.1001 H   0  0  0  0  0  0  0  0  0  0  0  0
    2.2054  -15.2324   19.4276 H   0  0  0  0  0  0  0  0  0  0  0  0
    2.8861  -15.7171   17.8340 H   0  0  0  0  0  0  0  0  0  0  0  0
    0.5427  -17.5713   19.2698 H   0  0  0  0  0  0  0  0  0  0  0  0
   -1.8915  -17.7641   18.0152 H   0  0  0  0  0  0  0  0  0  0  0  0
   -0.0764  -14.4651   16.5042 H   0  0  0  0  0  0  0  0  0  0  0  0
    6.8896   -6.7966   18.5211 H   0  0  0  0  0  0  0  0  0  0  0  0
  1  2  1  0
  2  3  1  0
  3  4  1  0
  4  5  1  0
  5  6  2  0
  6  7  1  0
  7  8  2  0
  8  9  1  0
  9 10  1  0
 10 11  2  0
 11 12  1  0
 12 13  1  0
 13 14  2  0
 13 15  1  0
 15 16  1  0
 16 17  1  0
 17 18  2  0
 18 19  1  0
 19 20  2  0
 20 21  1  0
 11 22  1  0
 22 23  2  0
 23  5  1  0
 22  8  1  0
 21 17  1  0
  1 24  1  0
  1 25  1  0
  1 26  1  0
  2 27  1  0
  2 28  1  0
  3 29  1  0
  3 30  1  0
  6 31  1  0
  7 32  1  0
  9 33  1  0
 10 34  1  0
 12 35  1  0
 12 36  1  0
 16 37  1  0
 16 38  1  0
 18 39  1  0
 19 40  1  0
 21 41  1  0
 23 42  1  0
M  END
>  <Energy>  (451) 
673.35579475001703

>  <compound_id>  (451) 
25417

>  <target_id>  (451) 
1

>  <reference_id>  (451) 
93

>  <inspiration_ids>  (451) 
[93, 112]

>  <energy_score>  (451) 
599.3177488244551

>  <distance_score>  (451) 
13.617201572552478

>  <path>  (451) 
/opt/xchem-fragalysis-2/maxwin/BulkDock/SCRATCH/511017/C25417-P93/C25417-P93.minimised.mol

>  <scratch_subdir>  (451) 
/opt/xchem-fragalysis-2/maxwin/BulkDock/SCRATCH/511017/C25417-P93

>  <fragmenstein_runtime>  (451) 
16.930386304855347

>  <fragmenstein_outcome>  (451) 
too moved

>  <fragmenstein_mode>  (451) 
expansion

>  <fragmenstein_error>  (451) 


$$$$
C25417-P112
     RDKit          3D

 42 44  0  0  0  0  0  0  0  0999 V2000
   11.2775   -2.2138   15.1515 C   0  0  0  0  0  0  0  0  0  0  0  0
   12.4560   -3.1715   15.1632 C   0  0  0  0  0  0  0  0  0  0  0  0
   12.1600   -4.4687   15.9158 C   0  0  0  0  0  0  0  0  0  0  0  0
   11.2431   -5.2642   15.1513 O   0  0  0  0  0  0  0  0  0  0  0  0
   10.8960   -6.4395   15.8618 C   0  0  0  0  0  0  0  0  0  0  0  0
   12.1768   -7.5126   16.1094 C   0  0  0  0  0  0  0  0  0  0  0  0
   11.5811   -9.1992   15.9607 C   0  0  0  0  0  0  0  0  0  0  0  0
   10.0547   -9.9365   15.5321 C   0  0  0  0  0  0  0  0  0  0  0  0
    9.8916  -10.4627   14.2658 N   0  0  0  0  0  0  0  0  0  0  0  0
    8.5363  -10.7873   14.3812 C   0  0  0  0  0  0  0  0  0  0  0  0
    6.6895  -10.3708   14.2721 C   0  0  0  0  0  0  0  0  0  0  0  0
    4.6596  -11.3297   14.7944 C   0  0  0  0  0  0  0  0  0  0  0  0
    2.5576  -12.2981   15.0710 C   0  0  0  0  0  0  0  0  0  0  0  0
    1.6611  -11.9902   14.0622 O   0  0  0  0  0  0  0  0  0  0  0  0
    1.6892  -13.2664   16.2987 O   0  0  0  0  0  0  0  0  0  0  0  0
    1.6050  -14.7538   16.8887 C   0  0  0  0  0  0  0  0  0  0  0  0
    0.1830  -15.3696   16.9262 C   0  0  0  0  0  0  0  0  0  0  0  0
   -1.0929  -14.8871   17.1635 C   0  0  0  0  0  0  0  0  0  0  0  0
   -1.9681  -15.9935   17.0722 C   0  0  0  0  0  0  0  0  0  0  0  0
   -1.3125  -17.1291   16.8451 N   0  0  0  0  0  0  0  0  0  0  0  0
   -0.0232  -16.7325   16.7851 N   0  0  0  0  0  0  0  0  0  0  0  0
    8.4371   -9.4965   15.3093 C   0  0  0  0  0  0  0  0  0  0  0  0
    9.5692   -7.8044   15.3487 C   0  0  0  0  0  0  0  0  0  0  0  0
   11.5109   -1.3335   14.5444 H   0  0  0  0  0  0  0  0  0  0  0  0
   10.3833   -2.6849   14.7386 H   0  0  0  0  0  0  0  0  0  0  0  0
   11.0498   -1.8699   16.1639 H   0  0  0  0  0  0  0  0  0  0  0  0
   12.7292   -3.3972   14.1271 H   0  0  0  0  0  0  0  0  0  0  0  0
   13.3107   -2.6698   15.6308 H   0  0  0  0  0  0  0  0  0  0  0  0
   11.7466   -4.2447   16.9057 H   0  0  0  0  0  0  0  0  0  0  0  0
   13.1097   -4.9957   16.0348 H   0  0  0  0  0  0  0  0  0  0  0  0
   13.1049   -7.1883   15.6506 H   0  0  0  0  0  0  0  0  0  0  0  0
   12.3697   -9.9061   15.6749 H   0  0  0  0  0  0  0  0  0  0  0  0
   10.5919  -11.0864   13.8930 H   0  0  0  0  0  0  0  0  0  0  0  0
    8.8752  -11.5811   15.1546 H   0  0  0  0  0  0  0  0  0  0  0  0
    4.3859  -10.6640   13.9472 H   0  0  0  0  0  0  0  0  0  0  0  0
    4.2470  -10.6833   15.5452 H   0  0  0  0  0  0  0  0  0  0  0  0
    2.3458  -15.4148   16.4387 H   0  0  0  0  0  0  0  0  0  0  0  0
    1.9112  -14.6263   17.9319 H   0  0  0  0  0  0  0  0  0  0  0  0
   -1.3574  -13.8606   17.3642 H   0  0  0  0  0  0  0  0  0  0  0  0
   -3.0447  -16.0128   17.1758 H   0  0  0  0  0  0  0  0  0  0  0  0
    0.6821  -17.4446   16.6321 H   0  0  0  0  0  0  0  0  0  0  0  0
    8.9485   -7.0095   14.8052 H   0  0  0  0  0  0  0  0  0  0  0  0
  1  2  1  0
  2  3  1  0
  3  4  1  0
  4  5  1  0
  5  6  2  0
  6  7  1  0
  7  8  2  0
  8  9  1  0
  9 10  1  0
 10 11  2  0
 11 12  1  0
 12 13  1  0
 13 14  2  0
 13 15  1  0
 15 16  1  0
 16 17  1  0
 17 18  2  0
 18 19  1  0
 19 20  2  0
 20 21  1  0
 11 22  1  0
 22 23  2  0
 23  5  1  0
 22  8  1  0
 21 17  1  0
  1 24  1  0
  1 25  1  0
  1 26  1  0
  2 27  1  0
  2 28  1  0
  3 29  1  0
  3 30  1  0
  6 31  1  0
  7 32  1  0
  9 33  1  0
 10 34  1  0
 12 35  1  0
 12 36  1  0
 16 37  1  0
 16 38  1  0
 18 39  1  0
 19 40  1  0
 21 41  1  0
 23 42  1  0
M  END
>  <Energy>  (452) 
1738.8092294440416

>  <compound_id>  (452) 
25417

>  <target_id>  (452) 
1

>  <reference_id>  (452) 
112

>  <inspiration_ids>  (452) 
[93, 112]

>  <energy_score>  (452) 
1664.7711835184796

>  <distance_score>  (452) 
12.339633901855832

>  <path>  (452) 
/opt/xchem-fragalysis-2/maxwin/BulkDock/SCRATCH/511017/C25417-P112/C25417-P112.minimised.mol

>  <scratch_subdir>  (452) 
/opt/xchem-fragalysis-2/maxwin/BulkDock/SCRATCH/511017/C25417-P112

>  <fragmenstein_runtime>  (452) 
12.71358609199524

>  <fragmenstein_outcome>  (452) 
too moved

>  <fragmenstein_mode>  (452) 
expansion

>  <fragmenstein_error>  (452) 


$$$$
C25420-P93
     RDKit          3D

 39 41  0  0  0  0  0  0  0  0999 V2000
    3.4386  -10.7776   16.0092 C   0  0  0  0  0  0  0  0  0  0  0  0
    2.9873  -11.0089   14.1320 N   0  0  0  0  0  0  0  0  0  0  0  0
    1.2858  -12.1400   13.8839 C   0  0  0  0  0  0  0  0  0  0  0  0
    1.4930  -13.3226   13.8112 O   0  0  0  0  0  0  0  0  0  0  0  0
   -0.6532  -11.8490   13.4964 C   0  0  0  0  0  0  0  0  0  0  0  0
   -1.3810  -13.2591   12.9837 C   0  0  0  0  0  0  0  0  0  0  0  0
   -2.4942  -14.0302   13.6966 C   0  0  0  0  0  0  0  0  0  0  0  0
   -2.4799  -14.9299   14.7517 C   0  0  0  0  0  0  0  0  0  0  0  0
   -3.7442  -15.5591   14.7541 C   0  0  0  0  0  0  0  0  0  0  0  0
   -4.5305  -15.1023   13.7786 N   0  0  0  0  0  0  0  0  0  0  0  0
   -3.7544  -14.1918   13.1518 N   0  0  0  0  0  0  0  0  0  0  0  0
    4.6896  -11.4392   14.1399 C   0  0  0  0  0  0  0  0  0  0  0  0
    5.9852  -11.6864   13.6437 C   0  0  0  0  0  0  0  0  0  0  0  0
    7.3797  -10.5953   14.2331 N   0  0  0  0  0  0  0  0  0  0  0  0
    8.8896  -10.9296   14.8369 C   0  0  0  0  0  0  0  0  0  0  0  0
    6.7959   -9.5784   13.7078 C   0  0  0  0  0  0  0  0  0  0  0  0
    6.9173   -8.1551   13.0521 C   0  0  0  0  0  0  0  0  0  0  0  0
    5.8763   -7.5360   13.5224 C   0  0  0  0  0  0  0  0  0  0  0  0
    4.5147   -7.8215   13.3975 C   0  0  0  0  0  0  0  0  0  0  0  0
    4.3351   -9.1175   13.5970 C   0  0  0  0  0  0  0  0  0  0  0  0
    5.1809  -10.2156   13.8673 C   0  0  0  0  0  0  0  0  0  0  0  0
    4.0996  -11.6028   16.0965 H   0  0  0  0  0  0  0  0  0  0  0  0
    3.3217   -9.9347   16.6925 H   0  0  0  0  0  0  0  0  0  0  0  0
    2.8811  -11.4423   16.6548 H   0  0  0  0  0  0  0  0  0  0  0  0
   -0.5262  -11.4621   12.4470 H   0  0  0  0  0  0  0  0  0  0  0  0
   -1.3305  -11.0747   13.8841 H   0  0  0  0  0  0  0  0  0  0  0  0
   -1.7904  -13.0121   11.9914 H   0  0  0  0  0  0  0  0  0  0  0  0
   -0.5827  -13.9810   12.7763 H   0  0  0  0  0  0  0  0  0  0  0  0
   -1.6339  -15.1494   15.3905 H   0  0  0  0  0  0  0  0  0  0  0  0
   -4.1089  -16.3345   15.4149 H   0  0  0  0  0  0  0  0  0  0  0  0
   -4.1257  -13.7443   12.3212 H   0  0  0  0  0  0  0  0  0  0  0  0
    6.3756  -12.6834   13.4954 H   0  0  0  0  0  0  0  0  0  0  0  0
    8.9903  -11.9043   15.3315 H   0  0  0  0  0  0  0  0  0  0  0  0
    9.6240  -10.9259   14.0425 H   0  0  0  0  0  0  0  0  0  0  0  0
    9.0502  -10.1771   15.6087 H   0  0  0  0  0  0  0  0  0  0  0  0
    7.7276   -7.6487   12.5777 H   0  0  0  0  0  0  0  0  0  0  0  0
    6.1894   -7.2925   14.5608 H   0  0  0  0  0  0  0  0  0  0  0  0
    3.9117   -7.2909   14.1427 H   0  0  0  0  0  0  0  0  0  0  0  0
    5.0922   -8.9790   14.2592 H   0  0  0  0  0  0  0  0  0  0  0  0
  1  2  1  0
  2  3  1  0
  3  4  2  0
  3  5  1  0
  5  6  1  0
  6  7  1  0
  7  8  2  0
  8  9  1  0
  9 10  2  0
 10 11  1  0
  2 12  1  0
 12 13  2  0
 13 14  1  0
 14 15  1  0
 14 16  1  0
 16 17  2  0
 17 18  1  0
 18 19  2  0
 19 20  1  0
 20 21  2  0
 11  7  1  0
 21 12  1  0
 21 16  1  0
  1 22  1  0
  1 23  1  0
  1 24  1  0
  5 25  1  0
  5 26  1  0
  6 27  1  0
  6 28  1  0
  8 29  1  0
  9 30  1  0
 11 31  1  0
 13 32  1  0
 15 33  1  0
 15 34  1  0
 15 35  1  0
 17 36  1  0
 18 37  1  0
 19 38  1  0
 20 39  1  0
M  END
>  <Energy>  (453) 
983.6325131534943

>  <compound_id>  (453) 
25420

>  <target_id>  (453) 
1

>  <reference_id>  (453) 
93

>  <inspiration_ids>  (453) 
[93, 112]

>  <energy_score>  (453) 
913.2014493095996

>  <distance_score>  (453) 
12.762876721396298

>  <path>  (453) 
/opt/xchem-fragalysis-2/maxwin/BulkDock/SCRATCH/511017/C25420-P93/C25420-P93.minimised.mol

>  <scratch_subdir>  (453) 
/opt/xchem-fragalysis-2/maxwin/BulkDock/SCRATCH/511017/C25420-P93

>  <fragmenstein_runtime>  (453) 
14.637312173843384

>  <fragmenstein_outcome>  (453) 
too moved

>  <fragmenstein_mode>  (453) 
expansion

>  <fragmenstein_error>  (453) 


$$$$
C25420-P112
     RDKit          3D

 39 41  0  0  0  0  0  0  0  0999 V2000
    3.8480  -10.5638   16.1896 C   0  0  0  0  0  0  0  0  0  0  0  0
    4.0435  -11.6983   15.5010 N   0  0  0  0  0  0  0  0  0  0  0  0
    2.2616  -12.4931   15.0448 C   0  0  0  0  0  0  0  0  0  0  0  0
    1.5326  -12.3312   14.0282 O   0  0  0  0  0  0  0  0  0  0  0  0
    1.4849  -13.9471   16.3510 C   0  0  0  0  0  0  0  0  0  0  0  0
    0.9521  -15.5396   16.4886 C   0  0  0  0  0  0  0  0  0  0  0  0
   -0.4992  -16.0331   16.2439 C   0  0  0  0  0  0  0  0  0  0  0  0
   -1.6896  -15.4739   15.8136 C   0  0  0  0  0  0  0  0  0  0  0  0
   -2.6420  -16.5204   15.8010 C   0  0  0  0  0  0  0  0  0  0  0  0
   -2.1200  -17.6754   16.2054 N   0  0  0  0  0  0  0  0  0  0  0  0
   -0.8269  -17.3705   16.4344 N   0  0  0  0  0  0  0  0  0  0  0  0
    5.3479  -10.5115   14.4691 C   0  0  0  0  0  0  0  0  0  0  0  0
    6.6145  -10.5734   14.0670 C   0  0  0  0  0  0  0  0  0  0  0  0
    7.8406  -10.1186   15.6124 N   0  0  0  0  0  0  0  0  0  0  0  0
    8.4137  -10.7599   16.9055 C   0  0  0  0  0  0  0  0  0  0  0  0
    8.9478   -9.5850   15.2819 C   0  0  0  0  0  0  0  0  0  0  0  0
   10.5093   -9.8711   15.6096 C   0  0  0  0  0  0  0  0  0  0  0  0
   11.3516  -10.7569   15.0471 C   0  0  0  0  0  0  0  0  0  0  0  0
   10.6951  -11.1351   13.9918 C   0  0  0  0  0  0  0  0  0  0  0  0
    9.1589  -10.8791   14.0646 C   0  0  0  0  0  0  0  0  0  0  0  0
    7.5058  -10.0893   14.3657 C   0  0  0  0  0  0  0  0  0  0  0  0
    3.3159   -9.9188   16.9262 H   0  0  0  0  0  0  0  0  0  0  0  0
    3.4023  -10.2642   15.2694 H   0  0  0  0  0  0  0  0  0  0  0  0
    3.3310  -11.2334   16.8944 H   0  0  0  0  0  0  0  0  0  0  0  0
    0.5362  -13.6136   16.7983 H   0  0  0  0  0  0  0  0  0  0  0  0
    2.1539  -14.0689   17.2472 H   0  0  0  0  0  0  0  0  0  0  0  0
    1.7028  -16.2503   16.1284 H   0  0  0  0  0  0  0  0  0  0  0  0
    1.0261  -15.7047   17.5812 H   0  0  0  0  0  0  0  0  0  0  0  0
   -1.8584  -14.4490   15.5226 H   0  0  0  0  0  0  0  0  0  0  0  0
   -3.6851  -16.4794   15.5158 H   0  0  0  0  0  0  0  0  0  0  0  0
   -0.2064  -18.1201   16.7225 H   0  0  0  0  0  0  0  0  0  0  0  0
    6.6534  -11.6740   13.5629 H   0  0  0  0  0  0  0  0  0  0  0  0
    9.3113  -10.3178   17.3122 H   0  0  0  0  0  0  0  0  0  0  0  0
    7.7980  -10.4464   17.7298 H   0  0  0  0  0  0  0  0  0  0  0  0
    8.7716  -11.7579   16.6730 H   0  0  0  0  0  0  0  0  0  0  0  0
   11.0209   -9.3509   16.3831 H   0  0  0  0  0  0  0  0  0  0  0  0
   12.3847  -10.9202   15.2759 H   0  0  0  0  0  0  0  0  0  0  0  0
   11.1497  -11.7357   13.2156 H   0  0  0  0  0  0  0  0  0  0  0  0
    9.1590  -11.7270   14.8669 H   0  0  0  0  0  0  0  0  0  0  0  0
  1  2  1  0
  2  3  1  0
  3  4  2  0
  3  5  1  0
  5  6  1  0
  6  7  1  0
  7  8  2  0
  8  9  1  0
  9 10  2  0
 10 11  1  0
  2 12  1  0
 12 13  2  0
 13 14  1  0
 14 15  1  0
 14 16  1  0
 16 17  2  0
 17 18  1  0
 18 19  2  0
 19 20  1  0
 20 21  2  0
 11  7  1  0
 21 12  1  0
 21 16  1  0
  1 22  1  0
  1 23  1  0
  1 24  1  0
  5 25  1  0
  5 26  1  0
  6 27  1  0
  6 28  1  0
  8 29  1  0
  9 30  1  0
 11 31  1  0
 13 32  1  0
 15 33  1  0
 15 34  1  0
 15 35  1  0
 17 36  1  0
 18 37  1  0
 19 38  1  0
 20 39  1  0
M  END
>  <Energy>  (454) 
1753.6382999676775

>  <compound_id>  (454) 
25420

>  <target_id>  (454) 
1

>  <reference_id>  (454) 
112

>  <inspiration_ids>  (454) 
[93, 112]

>  <energy_score>  (454) 
1683.2072361237606

>  <distance_score>  (454) 
12.543415485658954

>  <path>  (454) 
/opt/xchem-fragalysis-2/maxwin/BulkDock/SCRATCH/511017/C25420-P112/C25420-P112.minimised.mol

>  <scratch_subdir>  (454) 
/opt/xchem-fragalysis-2/maxwin/BulkDock/SCRATCH/511017/C25420-P112

>  <fragmenstein_runtime>  (454) 
10.481589794158936

>  <fragmenstein_outcome>  (454) 
too moved

>  <fragmenstein_mode>  (454) 
expansion

>  <fragmenstein_error>  (454) 


$$$$
C25423-P93
     RDKit          3D

 34 36  0  0  0  0  0  0  0  0999 V2000
   12.7633   -1.1558   16.3609 C   0  0  0  0  0  0  0  0  0  0  0  0
   11.9544   -2.2900   15.9643 N   0  0  0  0  0  0  0  0  0  0  0  0
   11.3362   -2.3096   14.7668 C   0  0  0  0  0  0  0  0  0  0  0  0
   11.0434   -3.6254   14.5124 C   0  0  0  0  0  0  0  0  0  0  0  0
   11.2298   -4.4723   15.6631 C   0  0  0  0  0  0  0  0  0  0  0  0
   11.2164   -6.0890   15.8565 C   0  0  0  0  0  0  0  0  0  0  0  0
    9.9618   -7.2965   15.2551 O   0  0  0  0  0  0  0  0  0  0  0  0
    9.7110   -9.1234   15.2994 C   0  0  0  0  0  0  0  0  0  0  0  0
    8.6743  -10.0595   14.3009 C   0  0  0  0  0  0  0  0  0  0  0  0
    7.8766   -9.4876   13.6059 O   0  0  0  0  0  0  0  0  0  0  0  0
    8.9620  -11.4987   14.4455 N   0  0  0  0  0  0  0  0  0  0  0  0
    8.3313  -12.6196   13.8882 C   0  0  0  0  0  0  0  0  0  0  0  0
    7.4693  -12.7458   12.8109 C   0  0  0  0  0  0  0  0  0  0  0  0
    7.1191  -14.1124   12.7409 C   0  0  0  0  0  0  0  0  0  0  0  0
    7.5497  -14.7911   13.8062 N   0  0  0  0  0  0  0  0  0  0  0  0
    8.3771  -13.9005   14.4118 N   0  0  0  0  0  0  0  0  0  0  0  0
   12.4798   -6.3085   16.2682 C   0  0  0  0  0  0  0  0  0  0  0  0
   13.3348   -5.2284   16.7477 C   0  0  0  0  0  0  0  0  0  0  0  0
   12.9426   -4.0547   17.3235 C   0  0  0  0  0  0  0  0  0  0  0  0
   12.0377   -3.5886   16.4298 C   0  0  0  0  0  0  0  0  0  0  0  0
   13.5660   -1.0346   15.6275 H   0  0  0  0  0  0  0  0  0  0  0  0
   12.1257   -0.2686   16.3676 H   0  0  0  0  0  0  0  0  0  0  0  0
   13.1956   -1.3096   17.3470 H   0  0  0  0  0  0  0  0  0  0  0  0
   11.3262   -1.4463   14.1145 H   0  0  0  0  0  0  0  0  0  0  0  0
   10.9319   -3.9672   13.5027 H   0  0  0  0  0  0  0  0  0  0  0  0
   10.6833   -9.6392   15.3645 H   0  0  0  0  0  0  0  0  0  0  0  0
    9.3793   -9.4848   16.2657 H   0  0  0  0  0  0  0  0  0  0  0  0
    9.6426  -11.6281   15.1855 H   0  0  0  0  0  0  0  0  0  0  0  0
    7.1815  -11.9548   12.1319 H   0  0  0  0  0  0  0  0  0  0  0  0
    6.5388  -14.6207   11.9814 H   0  0  0  0  0  0  0  0  0  0  0  0
    8.9042  -14.2152   15.2176 H   0  0  0  0  0  0  0  0  0  0  0  0
   12.8543   -7.2419   15.9188 H   0  0  0  0  0  0  0  0  0  0  0  0
   14.4120   -5.2573   16.6037 H   0  0  0  0  0  0  0  0  0  0  0  0
   13.6608   -3.4089   17.8145 H   0  0  0  0  0  0  0  0  0  0  0  0
  1  2  1  0
  2  3  1  0
  3  4  2  0
  4  5  1  0
  5  6  2  0
  6  7  1  0
  7  8  1  0
  8  9  1  0
  9 10  2  0
  9 11  1  0
 11 12  1  0
 12 13  2  0
 13 14  1  0
 14 15  2  0
 15 16  1  0
  6 17  1  0
 17 18  2  0
 18 19  1  0
 19 20  2  0
 20  2  1  0
 20  5  1  0
 16 12  1  0
  1 21  1  0
  1 22  1  0
  1 23  1  0
  3 24  1  0
  4 25  1  0
  8 26  1  0
  8 27  1  0
 11 28  1  0
 13 29  1  0
 14 30  1  0
 16 31  1  0
 17 32  1  0
 18 33  1  0
 19 34  1  0
M  END
>  <Energy>  (455) 
336.01240518026901

>  <compound_id>  (455) 
25423

>  <target_id>  (455) 
1

>  <reference_id>  (455) 
93

>  <inspiration_ids>  (455) 
[93, 112]

>  <energy_score>  (455) 
241.9254336145188

>  <distance_score>  (455) 
13.915694220306568

>  <path>  (455) 
/opt/xchem-fragalysis-2/maxwin/BulkDock/SCRATCH/511017/C25423-P93/C25423-P93.minimised.mol

>  <scratch_subdir>  (455) 
/opt/xchem-fragalysis-2/maxwin/BulkDock/SCRATCH/511017/C25423-P93

>  <fragmenstein_runtime>  (455) 
9.679012775421143

>  <fragmenstein_outcome>  (455) 
too moved

>  <fragmenstein_mode>  (455) 
expansion

>  <fragmenstein_error>  (455) 


$$$$
C25423-P112
     RDKit          3D

 34 36  0  0  0  0  0  0  0  0999 V2000
   12.5132   -4.1637   17.2826 C   0  0  0  0  0  0  0  0  0  0  0  0
   11.9879   -5.1611   16.3654 N   0  0  0  0  0  0  0  0  0  0  0  0
   12.6673   -5.4740   15.2714 C   0  0  0  0  0  0  0  0  0  0  0  0
   11.3840   -5.5411   14.5721 C   0  0  0  0  0  0  0  0  0  0  0  0
    9.9326   -6.6964   15.1725 C   0  0  0  0  0  0  0  0  0  0  0  0
    8.0275   -6.9501   14.7247 C   0  0  0  0  0  0  0  0  0  0  0  0
    6.3936   -8.0828   14.2474 O   0  0  0  0  0  0  0  0  0  0  0  0
    5.0599   -9.7569   14.1887 C   0  0  0  0  0  0  0  0  0  0  0  0
    3.6067  -11.0845   15.2950 C   0  0  0  0  0  0  0  0  0  0  0  0
    3.7853  -10.9700   16.4387 O   0  0  0  0  0  0  0  0  0  0  0  0
    2.1598  -12.5002   15.0126 N   0  0  0  0  0  0  0  0  0  0  0  0
    1.2662  -13.6509   16.1994 C   0  0  0  0  0  0  0  0  0  0  0  0
    1.3654  -14.2135   17.4550 C   0  0  0  0  0  0  0  0  0  0  0  0
    0.0166  -13.7078   17.7184 C   0  0  0  0  0  0  0  0  0  0  0  0
   -1.0566  -14.1789   17.2641 N   0  0  0  0  0  0  0  0  0  0  0  0
   -0.3858  -14.1736   16.1611 N   0  0  0  0  0  0  0  0  0  0  0  0
    7.6306   -5.5568   15.3436 C   0  0  0  0  0  0  0  0  0  0  0  0
    8.5049   -3.8703   15.3114 C   0  0  0  0  0  0  0  0  0  0  0  0
   10.0062   -3.6686   15.2291 C   0  0  0  0  0  0  0  0  0  0  0  0
   10.8516   -5.0686   15.5670 C   0  0  0  0  0  0  0  0  0  0  0  0
   12.2011   -4.3948   18.2968 H   0  0  0  0  0  0  0  0  0  0  0  0
   13.6068   -4.1792   17.2460 H   0  0  0  0  0  0  0  0  0  0  0  0
   12.1549   -3.1723   16.9972 H   0  0  0  0  0  0  0  0  0  0  0  0
   13.6341   -5.0416   15.0449 H   0  0  0  0  0  0  0  0  0  0  0  0
   11.2107   -4.8125   13.7136 H   0  0  0  0  0  0  0  0  0  0  0  0
    5.7575  -10.4085   13.6431 H   0  0  0  0  0  0  0  0  0  0  0  0
    4.4796   -9.2865   13.3952 H   0  0  0  0  0  0  0  0  0  0  0  0
    1.9370  -12.5327   14.0361 H   0  0  0  0  0  0  0  0  0  0  0  0
    1.9035  -15.1284   17.6810 H   0  0  0  0  0  0  0  0  0  0  0  0
   -0.4162  -12.7226   17.9162 H   0  0  0  0  0  0  0  0  0  0  0  0
   -0.8937  -13.9214   15.3361 H   0  0  0  0  0  0  0  0  0  0  0  0
    8.3822   -5.4366   14.4597 H   0  0  0  0  0  0  0  0  0  0  0  0
    7.8905   -2.9591   15.3599 H   0  0  0  0  0  0  0  0  0  0  0  0
   10.5148   -2.7186   15.3472 H   0  0  0  0  0  0  0  0  0  0  0  0
  1  2  1  0
  2  3  1  0
  3  4  2  0
  4  5  1  0
  5  6  2  0
  6  7  1  0
  7  8  1  0
  8  9  1  0
  9 10  2  0
  9 11  1  0
 11 12  1  0
 12 13  2  0
 13 14  1  0
 14 15  2  0
 15 16  1  0
  6 17  1  0
 17 18  2  0
 18 19  1  0
 19 20  2  0
 20  2  1  0
 20  5  1  0
 16 12  1  0
  1 21  1  0
  1 22  1  0
  1 23  1  0
  3 24  1  0
  4 25  1  0
  8 26  1  0
  8 27  1  0
 11 28  1  0
 13 29  1  0
 14 30  1  0
 16 31  1  0
 17 32  1  0
 18 33  1  0
 19 34  1  0
M  END
>  <Energy>  (456) 
1818.8885265769775

>  <compound_id>  (456) 
25423

>  <target_id>  (456) 
1

>  <reference_id>  (456) 
112

>  <inspiration_ids>  (456) 
[93, 112]

>  <energy_score>  (456) 
1724.8015550112498

>  <distance_score>  (456) 
12.199491102204606

>  <path>  (456) 
/opt/xchem-fragalysis-2/maxwin/BulkDock/SCRATCH/511017/C25423-P112/C25423-P112.minimised.mol

>  <scratch_subdir>  (456) 
/opt/xchem-fragalysis-2/maxwin/BulkDock/SCRATCH/511017/C25423-P112

>  <fragmenstein_runtime>  (456) 
8.979047536849976

>  <fragmenstein_outcome>  (456) 
too moved

>  <fragmenstein_mode>  (456) 
expansion

>  <fragmenstein_error>  (456) 


$$$$
C25413-P93
     RDKit          3D

 40 42  0  0  0  0  0  0  0  0999 V2000
    0.2667  -10.2430   10.8965 C   0  0  0  0  0  0  0  0  0  0  0  0
    1.4059  -11.2831   11.1266 C   0  0  0  0  0  0  0  0  0  0  0  0
    3.0191  -10.7959   11.6345 N   0  0  0  0  0  0  0  0  0  0  0  0
    4.1746  -10.5108   13.2226 C   0  0  0  0  0  0  0  0  0  0  0  0
    6.0003  -11.0094   13.8205 C   0  0  0  0  0  0  0  0  0  0  0  0
    7.9443  -10.5712   14.4551 C   0  0  0  0  0  0  0  0  0  0  0  0
    9.1519  -11.3503   14.2394 C   0  0  0  0  0  0  0  0  0  0  0  0
   10.3554  -10.7529   14.0486 N   0  0  0  0  0  0  0  0  0  0  0  0
   11.2801  -10.8767   12.8428 C   0  0  0  0  0  0  0  0  0  0  0  0
   10.5128  -10.6468   15.3995 C   0  0  0  0  0  0  0  0  0  0  0  0
   11.6097  -11.0629   16.1643 C   0  0  0  0  0  0  0  0  0  0  0  0
   11.3723  -11.4559   17.4655 C   0  0  0  0  0  0  0  0  0  0  0  0
   10.1461  -11.1861   18.0151 C   0  0  0  0  0  0  0  0  0  0  0  0
    9.0462  -10.7246   17.2255 C   0  0  0  0  0  0  0  0  0  0  0  0
    9.0924  -10.4992   15.8323 C   0  0  0  0  0  0  0  0  0  0  0  0
    0.5449  -12.6670   11.2257 C   0  0  0  0  0  0  0  0  0  0  0  0
   -0.3108  -13.1861   12.1982 C   0  0  0  0  0  0  0  0  0  0  0  0
   -0.8973  -14.3510   11.6651 C   0  0  0  0  0  0  0  0  0  0  0  0
   -0.5114  -14.5530   10.4074 N   0  0  0  0  0  0  0  0  0  0  0  0
    0.3227  -13.5165   10.1544 N   0  0  0  0  0  0  0  0  0  0  0  0
   -0.3344  -10.5196   10.0200 H   0  0  0  0  0  0  0  0  0  0  0  0
    0.6486   -9.2437   10.6869 H   0  0  0  0  0  0  0  0  0  0  0  0
   -0.4249  -10.1766   11.7408 H   0  0  0  0  0  0  0  0  0  0  0  0
    1.7595  -11.4037   10.0868 H   0  0  0  0  0  0  0  0  0  0  0  0
    3.6059  -11.2833   10.9562 H   0  0  0  0  0  0  0  0  0  0  0  0
    4.2075   -9.4263   13.3926 H   0  0  0  0  0  0  0  0  0  0  0  0
    3.5825  -10.8120   14.0710 H   0  0  0  0  0  0  0  0  0  0  0  0
    5.4001  -11.0555   14.6890 H   0  0  0  0  0  0  0  0  0  0  0  0
    6.0477  -12.0660   13.4924 H   0  0  0  0  0  0  0  0  0  0  0  0
    9.3080  -12.3021   14.8052 H   0  0  0  0  0  0  0  0  0  0  0  0
   10.9552  -11.5795   12.0929 H   0  0  0  0  0  0  0  0  0  0  0  0
   12.3232  -10.9989   13.1774 H   0  0  0  0  0  0  0  0  0  0  0  0
   11.3483  -10.0207   12.1860 H   0  0  0  0  0  0  0  0  0  0  0  0
   12.5824  -11.2239   15.7061 H   0  0  0  0  0  0  0  0  0  0  0  0
   12.1705  -11.8731   18.0733 H   0  0  0  0  0  0  0  0  0  0  0  0
   10.0006  -11.3153   19.0870 H   0  0  0  0  0  0  0  0  0  0  0  0
    8.1553  -10.5174   17.7740 H   0  0  0  0  0  0  0  0  0  0  0  0
   -0.4865  -12.7719   13.1732 H   0  0  0  0  0  0  0  0  0  0  0  0
   -1.5912  -15.0379   12.1323 H   0  0  0  0  0  0  0  0  0  0  0  0
    0.7200  -13.4455    9.2243 H   0  0  0  0  0  0  0  0  0  0  0  0
  1  2  1  0
  2  3  1  0
  3  4  1  0
  4  5  1  0
  5  6  1  0
  6  7  2  0
  7  8  1  0
  8  9  1  0
  8 10  1  0
 10 11  2  0
 11 12  1  0
 12 13  2  0
 13 14  1  0
 14 15  2  0
  2 16  1  0
 16 17  2  0
 17 18  1  0
 18 19  2  0
 19 20  1  0
 15  6  1  0
 20 16  1  0
 15 10  1  0
  1 21  1  0
  1 22  1  0
  1 23  1  0
  2 24  1  0
  3 25  1  0
  4 26  1  0
  4 27  1  0
  5 28  1  0
  5 29  1  0
  7 30  1  0
  9 31  1  0
  9 32  1  0
  9 33  1  0
 11 34  1  0
 12 35  1  0
 13 36  1  0
 14 37  1  0
 17 38  1  0
 18 39  1  0
 20 40  1  0
M  END
>  <Energy>  (457) 
608.19063762062979

>  <compound_id>  (457) 
25413

>  <target_id>  (457) 
1

>  <reference_id>  (457) 
93

>  <inspiration_ids>  (457) 
[93, 112]

>  <energy_score>  (457) 
561.6187473238301

>  <distance_score>  (457) 
14.01446235606297

>  <path>  (457) 
/opt/xchem-fragalysis-2/maxwin/BulkDock/SCRATCH/511017/C25413-P93/C25413-P93.minimised.mol

>  <scratch_subdir>  (457) 
/opt/xchem-fragalysis-2/maxwin/BulkDock/SCRATCH/511017/C25413-P93

>  <fragmenstein_runtime>  (457) 
13.871484994888306

>  <fragmenstein_outcome>  (457) 
too moved

>  <fragmenstein_mode>  (457) 
expansion

>  <fragmenstein_error>  (457) 


$$$$
C25413-P112
     RDKit          3D

 40 42  0  0  0  0  0  0  0  0999 V2000
    3.6147  -10.7827   10.5700 C   0  0  0  0  0  0  0  0  0  0  0  0
    3.3370   -9.8723   12.0364 C   0  0  0  0  0  0  0  0  0  0  0  0
    4.4763   -8.9311   13.5244 N   0  0  0  0  0  0  0  0  0  0  0  0
    6.1382   -7.6950   13.9322 C   0  0  0  0  0  0  0  0  0  0  0  0
    7.9212   -6.7268   14.7392 C   0  0  0  0  0  0  0  0  0  0  0  0
    9.9879   -6.6273   15.1799 C   0  0  0  0  0  0  0  0  0  0  0  0
   10.8426   -5.0604   14.6714 C   0  0  0  0  0  0  0  0  0  0  0  0
   10.7569   -3.8933   15.4668 N   0  0  0  0  0  0  0  0  0  0  0  0
   10.7938   -2.5364   14.9540 C   0  0  0  0  0  0  0  0  0  0  0  0
   11.3494   -4.3486   16.6099 C   0  0  0  0  0  0  0  0  0  0  0  0
   12.3306   -3.6131   17.3226 C   0  0  0  0  0  0  0  0  0  0  0  0
   13.6207   -3.7448   16.8572 C   0  0  0  0  0  0  0  0  0  0  0  0
   13.8837   -4.7840   16.0145 C   0  0  0  0  0  0  0  0  0  0  0  0
   12.8820   -5.7843   15.8067 C   0  0  0  0  0  0  0  0  0  0  0  0
   11.4247   -5.7223   16.1107 C   0  0  0  0  0  0  0  0  0  0  0  0
    1.5111  -10.4473   11.5319 C   0  0  0  0  0  0  0  0  0  0  0  0
    0.8525  -11.6377   11.0567 C   0  0  0  0  0  0  0  0  0  0  0  0
   -0.5301  -11.4081   10.9499 C   0  0  0  0  0  0  0  0  0  0  0  0
   -0.7933  -10.1224   11.1165 N   0  0  0  0  0  0  0  0  0  0  0  0
    0.4398   -9.5652   11.2054 N   0  0  0  0  0  0  0  0  0  0  0  0
    2.7843  -10.9190    9.8723 H   0  0  0  0  0  0  0  0  0  0  0  0
    3.9145  -11.8260   10.6561 H   0  0  0  0  0  0  0  0  0  0  0  0
    4.2610  -10.1356   10.0124 H   0  0  0  0  0  0  0  0  0  0  0  0
    3.3171   -8.8548   11.5732 H   0  0  0  0  0  0  0  0  0  0  0  0
    3.7848   -8.1932   13.6651 H   0  0  0  0  0  0  0  0  0  0  0  0
    6.7314   -8.5398   13.9261 H   0  0  0  0  0  0  0  0  0  0  0  0
    6.0681   -7.1413   13.0024 H   0  0  0  0  0  0  0  0  0  0  0  0
    8.2744   -6.6790   13.7504 H   0  0  0  0  0  0  0  0  0  0  0  0
    7.4560   -5.9956   15.4120 H   0  0  0  0  0  0  0  0  0  0  0  0
   10.9706   -4.6695   13.6742 H   0  0  0  0  0  0  0  0  0  0  0  0
   11.3684   -2.5107   14.0250 H   0  0  0  0  0  0  0  0  0  0  0  0
    9.7617   -2.2256   14.7834 H   0  0  0  0  0  0  0  0  0  0  0  0
   11.2446   -1.8617   15.6840 H   0  0  0  0  0  0  0  0  0  0  0  0
   12.0970   -2.6794   17.8164 H   0  0  0  0  0  0  0  0  0  0  0  0
   14.3971   -3.0462   17.1455 H   0  0  0  0  0  0  0  0  0  0  0  0
   14.8818   -4.9271   15.6134 H   0  0  0  0  0  0  0  0  0  0  0  0
   13.2327   -6.6854   15.3553 H   0  0  0  0  0  0  0  0  0  0  0  0
    1.2701  -12.6021   10.8342 H   0  0  0  0  0  0  0  0  0  0  0  0
   -1.3262  -12.1032   10.7191 H   0  0  0  0  0  0  0  0  0  0  0  0
    0.5055   -8.5567   11.2596 H   0  0  0  0  0  0  0  0  0  0  0  0
  1  2  1  0
  2  3  1  0
  3  4  1  0
  4  5  1  0
  5  6  1  0
  6  7  2  0
  7  8  1  0
  8  9  1  0
  8 10  1  0
 10 11  2  0
 11 12  1  0
 12 13  2  0
 13 14  1  0
 14 15  2  0
  2 16  1  0
 16 17  2  0
 17 18  1  0
 18 19  2  0
 19 20  1  0
 15  6  1  0
 20 16  1  0
 15 10  1  0
  1 21  1  0
  1 22  1  0
  1 23  1  0
  2 24  1  0
  3 25  1  0
  4 26  1  0
  4 27  1  0
  5 28  1  0
  5 29  1  0
  7 30  1  0
  9 31  1  0
  9 32  1  0
  9 33  1  0
 11 34  1  0
 12 35  1  0
 13 36  1  0
 14 37  1  0
 17 38  1  0
 18 39  1  0
 20 40  1  0
M  END
>  <Energy>  (458) 
1134.540751783727

>  <compound_id>  (458) 
25413

>  <target_id>  (458) 
1

>  <reference_id>  (458) 
112

>  <inspiration_ids>  (458) 
[93, 112]

>  <energy_score>  (458) 
1087.9688614869424

>  <distance_score>  (458) 
14.067842332105045

>  <path>  (458) 
/opt/xchem-fragalysis-2/maxwin/BulkDock/SCRATCH/511017/C25413-P112/C25413-P112.minimised.mol

>  <scratch_subdir>  (458) 
/opt/xchem-fragalysis-2/maxwin/BulkDock/SCRATCH/511017/C25413-P112

>  <fragmenstein_runtime>  (458) 
7.59775185585022

>  <fragmenstein_outcome>  (458) 
too moved

>  <fragmenstein_mode>  (458) 
expansion

>  <fragmenstein_error>  (458) 


$$$$
C25428-P93
     RDKit          3D

 36 38  0  0  0  0  0  0  0  0999 V2000
    6.1217   -6.4763   17.3630 C   0  0  0  0  0  0  0  0  0  0  0  0
    5.8098   -6.5380   15.9495 N   0  0  0  0  0  0  0  0  0  0  0  0
    6.0630   -7.4940   14.3780 C   0  0  0  0  0  0  0  0  0  0  0  0
    4.5675   -7.9787   13.7770 C   0  0  0  0  0  0  0  0  0  0  0  0
    4.2600  -10.2429   13.4991 S   0  0  0  0  0  0  0  0  0  0  0  0
    3.7087  -10.7665   14.6964 O   0  0  0  0  0  0  0  0  0  0  0  0
    5.4813  -10.9984   13.3247 O   0  0  0  0  0  0  0  0  0  0  0  0
    2.8938  -10.5961   11.7372 N   0  0  0  0  0  0  0  0  0  0  0  0
    2.8655  -11.7406   10.6656 C   0  0  0  0  0  0  0  0  0  0  0  0
    3.6286  -12.6631   10.4812 O   0  0  0  0  0  0  0  0  0  0  0  0
    1.5607  -11.7007    9.7835 C   0  0  0  0  0  0  0  0  0  0  0  0
    0.5532  -12.8699   10.0977 C   0  0  0  0  0  0  0  0  0  0  0  0
    0.3307  -14.1017    9.4904 C   0  0  0  0  0  0  0  0  0  0  0  0
   -0.7273  -14.7156   10.2014 C   0  0  0  0  0  0  0  0  0  0  0  0
   -1.1862  -13.9298   11.1755 N   0  0  0  0  0  0  0  0  0  0  0  0
   -0.3825  -12.8463   11.1144 N   0  0  0  0  0  0  0  0  0  0  0  0
    3.6237   -6.6912   14.8981 C   0  0  0  0  0  0  0  0  0  0  0  0
    2.8208   -5.3518   14.5822 C   0  0  0  0  0  0  0  0  0  0  0  0
    2.2809   -4.4576   15.5115 C   0  0  0  0  0  0  0  0  0  0  0  0
    2.5451   -4.6634   16.8390 C   0  0  0  0  0  0  0  0  0  0  0  0
    3.4978   -5.6022   17.1990 C   0  0  0  0  0  0  0  0  0  0  0  0
    4.1507   -6.3460   16.1670 C   0  0  0  0  0  0  0  0  0  0  0  0
    5.8008   -5.5428   17.7766 H   0  0  0  0  0  0  0  0  0  0  0  0
    5.5277   -7.1636   17.9670 H   0  0  0  0  0  0  0  0  0  0  0  0
    7.1067   -6.4665   17.6483 H   0  0  0  0  0  0  0  0  0  0  0  0
    6.9855   -7.9612   14.4171 H   0  0  0  0  0  0  0  0  0  0  0  0
    2.0521  -10.0362   11.6577 H   0  0  0  0  0  0  0  0  0  0  0  0
    1.0287  -10.7591    9.9426 H   0  0  0  0  0  0  0  0  0  0  0  0
    1.8589  -11.7604    8.7313 H   0  0  0  0  0  0  0  0  0  0  0  0
    0.8770  -14.5100    8.6505 H   0  0  0  0  0  0  0  0  0  0  0  0
   -1.1768  -15.6872   10.0396 H   0  0  0  0  0  0  0  0  0  0  0  0
   -0.5306  -12.1194   11.8035 H   0  0  0  0  0  0  0  0  0  0  0  0
    2.6732   -5.0578   13.5339 H   0  0  0  0  0  0  0  0  0  0  0  0
    1.6733   -3.6198   15.1836 H   0  0  0  0  0  0  0  0  0  0  0  0
    2.1127   -4.0107   17.5930 H   0  0  0  0  0  0  0  0  0  0  0  0
    3.8486   -5.5865   18.2273 H   0  0  0  0  0  0  0  0  0  0  0  0
  1  2  1  0
  2  3  1  0
  3  4  2  0
  4  5  1  0
  5  6  2  0
  5  7  2  0
  5  8  1  0
  8  9  1  0
  9 10  2  0
  9 11  1  0
 11 12  1  0
 12 13  2  0
 13 14  1  0
 14 15  2  0
 15 16  1  0
  4 17  1  0
 17 18  2  0
 18 19  1  0
 19 20  2  0
 20 21  1  0
 21 22  2  0
 22  2  1  0
 16 12  1  0
 22 17  1  0
  1 23  1  0
  1 24  1  0
  1 25  1  0
  3 26  1  0
  8 27  1  0
 11 28  1  0
 11 29  1  0
 13 30  1  0
 14 31  1  0
 16 32  1  0
 18 33  1  0
 19 34  1  0
 20 35  1  0
 21 36  1  0
M  END
>  <Energy>  (459) 
432.02051123553792

>  <compound_id>  (459) 
25428

>  <target_id>  (459) 
1

>  <reference_id>  (459) 
93

>  <inspiration_ids>  (459) 
[93, 112]

>  <energy_score>  (459) 
434.16934169738386

>  <distance_score>  (459) 
14.278472420579362

>  <path>  (459) 
/opt/xchem-fragalysis-2/maxwin/BulkDock/SCRATCH/511017/C25428-P93/C25428-P93.minimised.mol

>  <scratch_subdir>  (459) 
/opt/xchem-fragalysis-2/maxwin/BulkDock/SCRATCH/511017/C25428-P93

>  <fragmenstein_runtime>  (459) 
17.358700037002563

>  <fragmenstein_outcome>  (459) 
too moved

>  <fragmenstein_mode>  (459) 
expansion

>  <fragmenstein_error>  (459) 


$$$$
C25428-P112
     RDKit          3D

 36 38  0  0  0  0  0  0  0  0999 V2000
   13.0412  -11.6114   17.1319 C   0  0  0  0  0  0  0  0  0  0  0  0
   11.8802  -10.7404   16.7396 N   0  0  0  0  0  0  0  0  0  0  0  0
   10.7890  -10.7996   17.6506 C   0  0  0  0  0  0  0  0  0  0  0  0
    9.8570  -10.8774   16.6324 C   0  0  0  0  0  0  0  0  0  0  0  0
   10.2036  -12.9185   16.2107 S   0  0  0  0  0  0  0  0  0  0  0  0
    9.2279  -12.6585   15.2173 O   0  0  0  0  0  0  0  0  0  0  0  0
   11.5893  -13.0518   15.8502 O   0  0  0  0  0  0  0  0  0  0  0  0
    9.7933  -14.5947   16.3876 N   0  0  0  0  0  0  0  0  0  0  0  0
    9.9931  -15.5290   17.5053 C   0  0  0  0  0  0  0  0  0  0  0  0
   10.4207  -15.3410   18.6132 O   0  0  0  0  0  0  0  0  0  0  0  0
    9.6342  -17.0956   16.9976 C   0  0  0  0  0  0  0  0  0  0  0  0
    8.2136  -17.7740   16.7964 C   0  0  0  0  0  0  0  0  0  0  0  0
    7.5014  -18.6682   17.5997 C   0  0  0  0  0  0  0  0  0  0  0  0
    6.2967  -18.9660   16.9215 C   0  0  0  0  0  0  0  0  0  0  0  0
    6.2273  -18.3362   15.7519 N   0  0  0  0  0  0  0  0  0  0  0  0
    7.3862  -17.6399   15.6820 N   0  0  0  0  0  0  0  0  0  0  0  0
   10.2198   -9.4293   15.6242 C   0  0  0  0  0  0  0  0  0  0  0  0
    9.9035   -7.6320   15.3794 C   0  0  0  0  0  0  0  0  0  0  0  0
   11.0311   -6.1738   15.8316 C   0  0  0  0  0  0  0  0  0  0  0  0
   12.2984   -6.5445   16.0733 C   0  0  0  0  0  0  0  0  0  0  0  0
   12.3753   -8.1690   15.9323 C   0  0  0  0  0  0  0  0  0  0  0  0
   11.6286   -9.5435   15.9664 C   0  0  0  0  0  0  0  0  0  0  0  0
   12.6539  -12.4767   17.6850 H   0  0  0  0  0  0  0  0  0  0  0  0
   13.5995  -11.9570   16.2754 H   0  0  0  0  0  0  0  0  0  0  0  0
   13.7496  -11.1936   17.8501 H   0  0  0  0  0  0  0  0  0  0  0  0
   10.9040  -11.3876   18.5544 H   0  0  0  0  0  0  0  0  0  0  0  0
    9.3364  -15.0800   15.6303 H   0  0  0  0  0  0  0  0  0  0  0  0
   10.1676  -17.2158   16.0439 H   0  0  0  0  0  0  0  0  0  0  0  0
   10.1665  -17.7357   17.7161 H   0  0  0  0  0  0  0  0  0  0  0  0
    7.8143  -19.0485   18.5626 H   0  0  0  0  0  0  0  0  0  0  0  0
    5.4831  -19.6100   17.2301 H   0  0  0  0  0  0  0  0  0  0  0  0
    7.5190  -17.0452   14.8679 H   0  0  0  0  0  0  0  0  0  0  0  0
    9.1027   -7.1277   14.8634 H   0  0  0  0  0  0  0  0  0  0  0  0
   10.9698   -5.1738   15.3693 H   0  0  0  0  0  0  0  0  0  0  0  0
   13.1232   -5.8782   15.8503 H   0  0  0  0  0  0  0  0  0  0  0  0
   13.2577   -8.2698   15.3485 H   0  0  0  0  0  0  0  0  0  0  0  0
  1  2  1  0
  2  3  1  0
  3  4  2  0
  4  5  1  0
  5  6  2  0
  5  7  2  0
  5  8  1  0
  8  9  1  0
  9 10  2  0
  9 11  1  0
 11 12  1  0
 12 13  2  0
 13 14  1  0
 14 15  2  0
 15 16  1  0
  4 17  1  0
 17 18  2  0
 18 19  1  0
 19 20  2  0
 20 21  1  0
 21 22  2  0
 22  2  1  0
 16 12  1  0
 22 17  1  0
  1 23  1  0
  1 24  1  0
  1 25  1  0
  3 26  1  0
  8 27  1  0
 11 28  1  0
 11 29  1  0
 13 30  1  0
 14 31  1  0
 16 32  1  0
 18 33  1  0
 19 34  1  0
 20 35  1  0
 21 36  1  0
M  END
>  <Energy>  (460) 
440.02194433932027

>  <compound_id>  (460) 
25428

>  <target_id>  (460) 
1

>  <reference_id>  (460) 
112

>  <inspiration_ids>  (460) 
[93, 112]

>  <energy_score>  (460) 
442.17077480116416

>  <distance_score>  (460) 
15.570150669885784

>  <path>  (460) 
/opt/xchem-fragalysis-2/maxwin/BulkDock/SCRATCH/511017/C25428-P112/C25428-P112.minimised.mol

>  <scratch_subdir>  (460) 
/opt/xchem-fragalysis-2/maxwin/BulkDock/SCRATCH/511017/C25428-P112

>  <fragmenstein_runtime>  (460) 
8.757261514663696

>  <fragmenstein_outcome>  (460) 
too moved

>  <fragmenstein_mode>  (460) 
expansion

>  <fragmenstein_error>  (460) 


$$$$
C25432-P93
     RDKit          3D

 40 42  0  0  0  0  0  0  0  0999 V2000
    3.2472  -11.8016   10.5102 C   0  0  0  0  0  0  0  0  0  0  0  0
    2.5734  -10.9861   11.7063 C   0  0  0  0  0  0  0  0  0  0  0  0
    3.8123  -10.4807   13.3033 C   0  0  0  0  0  0  0  0  0  0  0  0
    4.2432   -8.9184   14.2659 C   0  0  0  0  0  0  0  0  0  0  0  0
    5.4169   -8.2007   14.2153 C   0  0  0  0  0  0  0  0  0  0  0  0
    6.0648   -8.9247   15.1943 N   0  0  0  0  0  0  0  0  0  0  0  0
    7.3569   -9.4350   14.8346 C   0  0  0  0  0  0  0  0  0  0  0  0
    5.2478   -8.8803   16.3015 C   0  0  0  0  0  0  0  0  0  0  0  0
    5.3709   -8.9561   17.7088 C   0  0  0  0  0  0  0  0  0  0  0  0
    4.6137   -8.0470   18.4395 C   0  0  0  0  0  0  0  0  0  0  0  0
    3.7811   -7.1708   17.7740 C   0  0  0  0  0  0  0  0  0  0  0  0
    3.5489   -7.3510   16.4040 C   0  0  0  0  0  0  0  0  0  0  0  0
    4.0544   -8.4993   15.6974 C   0  0  0  0  0  0  0  0  0  0  0  0
    0.8763  -11.9480   11.5951 N   0  0  0  0  0  0  0  0  0  0  0  0
    0.2918  -13.9957   11.8666 S   0  0  0  0  0  0  0  0  0  0  0  0
    0.3447  -14.1730   13.2753 O   0  0  0  0  0  0  0  0  0  0  0  0
   -0.9945  -14.2302   11.2832 O   0  0  0  0  0  0  0  0  0  0  0  0
    0.8441  -15.7785   11.0235 C   0  0  0  0  0  0  0  0  0  0  0  0
    1.2613  -16.3406    9.8017 C   0  0  0  0  0  0  0  0  0  0  0  0
    1.4116  -17.7314   10.0005 C   0  0  0  0  0  0  0  0  0  0  0  0
    1.1775  -18.0622   11.2610 N   0  0  0  0  0  0  0  0  0  0  0  0
    0.7577  -16.9070   11.7790 N   0  0  0  0  0  0  0  0  0  0  0  0
    3.9665  -12.5447   10.8248 H   0  0  0  0  0  0  0  0  0  0  0  0
    3.5452  -11.1260    9.7054 H   0  0  0  0  0  0  0  0  0  0  0  0
    2.6377  -12.5656   10.0546 H   0  0  0  0  0  0  0  0  0  0  0  0
    2.2957  -10.0982   11.1330 H   0  0  0  0  0  0  0  0  0  0  0  0
    3.5092  -10.9071   14.2397 H   0  0  0  0  0  0  0  0  0  0  0  0
    4.8208  -10.9423   13.2154 H   0  0  0  0  0  0  0  0  0  0  0  0
    6.0250   -7.8138   13.4160 H   0  0  0  0  0  0  0  0  0  0  0  0
    7.0478  -10.1613   14.1535 H   0  0  0  0  0  0  0  0  0  0  0  0
    7.9417   -8.6861   14.3010 H   0  0  0  0  0  0  0  0  0  0  0  0
    7.9186   -9.9468   15.6126 H   0  0  0  0  0  0  0  0  0  0  0  0
    6.1396   -9.5229   18.2253 H   0  0  0  0  0  0  0  0  0  0  0  0
    4.7545   -7.9619   19.5134 H   0  0  0  0  0  0  0  0  0  0  0  0
    3.3085   -6.3482   18.3022 H   0  0  0  0  0  0  0  0  0  0  0  0
    3.0063   -6.5586   15.9039 H   0  0  0  0  0  0  0  0  0  0  0  0
    0.1171  -11.4041   12.0051 H   0  0  0  0  0  0  0  0  0  0  0  0
    1.4642  -15.8630    8.8571 H   0  0  0  0  0  0  0  0  0  0  0  0
    1.6988  -18.4959    9.2904 H   0  0  0  0  0  0  0  0  0  0  0  0
    0.5120  -16.9224   12.7416 H   0  0  0  0  0  0  0  0  0  0  0  0
  1  2  1  0
  2  3  1  0
  3  4  1  0
  4  5  2  0
  5  6  1  0
  6  7  1  0
  6  8  1  0
  8  9  2  0
  9 10  1  0
 10 11  2  0
 11 12  1  0
 12 13  2  0
  2 14  1  0
 14 15  1  0
 15 16  2  0
 15 17  2  0
 15 18  1  0
 18 19  2  0
 19 20  1  0
 20 21  2  0
 21 22  1  0
 13  4  1  0
 22 18  1  0
 13  8  1  0
  1 23  1  0
  1 24  1  0
  1 25  1  0
  2 26  1  0
  3 27  1  0
  3 28  1  0
  5 29  1  0
  7 30  1  0
  7 31  1  0
  7 32  1  0
  9 33  1  0
 10 34  1  0
 11 35  1  0
 12 36  1  0
 14 37  1  0
 19 38  1  0
 20 39  1  0
 22 40  1  0
M  END
>  <Energy>  (461) 
378.58231652638136

>  <compound_id>  (461) 
25432

>  <target_id>  (461) 
1

>  <reference_id>  (461) 
93

>  <inspiration_ids>  (461) 
[93, 112]

>  <energy_score>  (461) 
392.5829033822397

>  <distance_score>  (461) 
13.364172741339448

>  <path>  (461) 
/opt/xchem-fragalysis-2/maxwin/BulkDock/SCRATCH/511017/C25432-P93/C25432-P93.minimised.mol

>  <scratch_subdir>  (461) 
/opt/xchem-fragalysis-2/maxwin/BulkDock/SCRATCH/511017/C25432-P93

>  <fragmenstein_runtime>  (461) 
14.320250511169434

>  <fragmenstein_outcome>  (461) 
too moved

>  <fragmenstein_mode>  (461) 
expansion

>  <fragmenstein_error>  (461) 


$$$$
C25432-P112
     RDKit          3D

 40 42  0  0  0  0  0  0  0  0999 V2000
    6.6570  -13.4015   20.3778 C   0  0  0  0  0  0  0  0  0  0  0  0
    5.7930  -12.2163   19.9785 C   0  0  0  0  0  0  0  0  0  0  0  0
    6.6581  -11.1828   18.9797 C   0  0  0  0  0  0  0  0  0  0  0  0
    7.8491  -10.0811   19.3190 C   0  0  0  0  0  0  0  0  0  0  0  0
    8.1909   -9.6205   20.5946 C   0  0  0  0  0  0  0  0  0  0  0  0
    9.1064   -8.5575   20.7066 N   0  0  0  0  0  0  0  0  0  0  0  0
    9.6772   -8.1671   21.9797 C   0  0  0  0  0  0  0  0  0  0  0  0
    9.3845   -7.9241   19.5054 C   0  0  0  0  0  0  0  0  0  0  0  0
    9.8651   -6.0852   18.7269 C   0  0  0  0  0  0  0  0  0  0  0  0
   10.6527   -6.1407   16.8589 C   0  0  0  0  0  0  0  0  0  0  0  0
    9.7433   -7.4868   15.6823 C   0  0  0  0  0  0  0  0  0  0  0  0
    9.2739   -9.1945   16.5019 C   0  0  0  0  0  0  0  0  0  0  0  0
    8.7402   -9.2703   18.3737 C   0  0  0  0  0  0  0  0  0  0  0  0
    4.2472  -12.7869   19.4478 N   0  0  0  0  0  0  0  0  0  0  0  0
    3.7165  -14.5286   19.3240 S   0  0  0  0  0  0  0  0  0  0  0  0
    4.0478  -15.2024   20.5574 O   0  0  0  0  0  0  0  0  0  0  0  0
    4.1317  -15.1082   18.0656 O   0  0  0  0  0  0  0  0  0  0  0  0
    1.9666  -14.9323   19.2944 C   0  0  0  0  0  0  0  0  0  0  0  0
    0.7483  -14.4139   19.6905 C   0  0  0  0  0  0  0  0  0  0  0  0
   -0.1759  -15.4829   19.5920 C   0  0  0  0  0  0  0  0  0  0  0  0
    0.3814  -16.5963   19.1079 N   0  0  0  0  0  0  0  0  0  0  0  0
    1.6704  -16.2341   18.9376 N   0  0  0  0  0  0  0  0  0  0  0  0
    6.8004  -14.0885   19.5387 H   0  0  0  0  0  0  0  0  0  0  0  0
    7.6422  -13.0666   20.7177 H   0  0  0  0  0  0  0  0  0  0  0  0
    6.2011  -13.9580   21.2012 H   0  0  0  0  0  0  0  0  0  0  0  0
    5.5324  -11.6343   20.8720 H   0  0  0  0  0  0  0  0  0  0  0  0
    7.2049  -11.8336   18.3027 H   0  0  0  0  0  0  0  0  0  0  0  0
    5.8983  -10.5783   18.4777 H   0  0  0  0  0  0  0  0  0  0  0  0
    7.8071  -10.0000   21.5336 H   0  0  0  0  0  0  0  0  0  0  0  0
    8.8652   -7.9773   22.6859 H   0  0  0  0  0  0  0  0  0  0  0  0
   10.3011   -8.9925   22.3333 H   0  0  0  0  0  0  0  0  0  0  0  0
   10.2917   -7.2724   21.8559 H   0  0  0  0  0  0  0  0  0  0  0  0
   10.2100   -5.4216   19.5376 H   0  0  0  0  0  0  0  0  0  0  0  0
   11.2076   -5.2684   16.4591 H   0  0  0  0  0  0  0  0  0  0  0  0
    9.0973   -7.0903   14.9299 H   0  0  0  0  0  0  0  0  0  0  0  0
    8.6953   -9.9028   15.9015 H   0  0  0  0  0  0  0  0  0  0  0  0
    3.8892  -12.2636   18.6395 H   0  0  0  0  0  0  0  0  0  0  0  0
    0.5752  -13.4286   20.0974 H   0  0  0  0  0  0  0  0  0  0  0  0
   -1.2250  -15.4900   19.8613 H   0  0  0  0  0  0  0  0  0  0  0  0
    2.3471  -16.9222   18.6167 H   0  0  0  0  0  0  0  0  0  0  0  0
  1  2  1  0
  2  3  1  0
  3  4  1  0
  4  5  2  0
  5  6  1  0
  6  7  1  0
  6  8  1  0
  8  9  2  0
  9 10  1  0
 10 11  2  0
 11 12  1  0
 12 13  2  0
  2 14  1  0
 14 15  1  0
 15 16  2  0
 15 17  2  0
 15 18  1  0
 18 19  2  0
 19 20  1  0
 20 21  2  0
 21 22  1  0
 13  4  1  0
 22 18  1  0
 13  8  1  0
  1 23  1  0
  1 24  1  0
  1 25  1  0
  2 26  1  0
  3 27  1  0
  3 28  1  0
  5 29  1  0
  7 30  1  0
  7 31  1  0
  7 32  1  0
  9 33  1  0
 10 34  1  0
 11 35  1  0
 12 36  1  0
 14 37  1  0
 19 38  1  0
 20 39  1  0
 22 40  1  0
M  END
>  <Energy>  (462) 
662.32585432720907

>  <compound_id>  (462) 
25432

>  <target_id>  (462) 
1

>  <reference_id>  (462) 
112

>  <inspiration_ids>  (462) 
[93, 112]

>  <energy_score>  (462) 
676.326441183075

>  <distance_score>  (462) 
13.690595109706367

>  <path>  (462) 
/opt/xchem-fragalysis-2/maxwin/BulkDock/SCRATCH/511017/C25432-P112/C25432-P112.minimised.mol

>  <scratch_subdir>  (462) 
/opt/xchem-fragalysis-2/maxwin/BulkDock/SCRATCH/511017/C25432-P112

>  <fragmenstein_runtime>  (462) 
12.62528657913208

>  <fragmenstein_outcome>  (462) 
too moved

>  <fragmenstein_mode>  (462) 
expansion

>  <fragmenstein_error>  (462) 


$$$$
C25433-P93
     RDKit          3D

 43 45  0  0  0  0  0  0  0  0999 V2000
    3.3568  -12.3812   10.0769 C   0  0  0  0  0  0  0  0  0  0  0  0
    3.4512  -10.9147   10.4424 C   0  0  0  0  0  0  0  0  0  0  0  0
    3.2771  -10.4144   12.1135 C   0  0  0  0  0  0  0  0  0  0  0  0
    4.2628   -8.9542   13.3718 C   0  0  0  0  0  0  0  0  0  0  0  0
    5.9167   -7.8852   13.9646 C   0  0  0  0  0  0  0  0  0  0  0  0
    7.1116   -7.7705   13.3288 C   0  0  0  0  0  0  0  0  0  0  0  0
    8.3046   -7.0732   14.5181 N   0  0  0  0  0  0  0  0  0  0  0  0
    9.5970   -7.6964   15.1002 C   0  0  0  0  0  0  0  0  0  0  0  0
    7.5363   -5.8945   15.4805 C   0  0  0  0  0  0  0  0  0  0  0  0
    7.7003   -3.8366   15.5730 C   0  0  0  0  0  0  0  0  0  0  0  0
    8.4728   -2.9789   15.0450 C   0  0  0  0  0  0  0  0  0  0  0  0
    8.4603   -4.2077   15.4781 C   0  0  0  0  0  0  0  0  0  0  0  0
    7.1723   -5.6413   16.1831 C   0  0  0  0  0  0  0  0  0  0  0  0
    6.3665   -6.7605   15.5449 C   0  0  0  0  0  0  0  0  0  0  0  0
    1.5296  -11.1463   11.7662 N   0  0  0  0  0  0  0  0  0  0  0  0
    0.2977  -12.4711   12.1405 S   0  0  0  0  0  0  0  0  0  0  0  0
    0.4925  -12.8221   13.5028 O   0  0  0  0  0  0  0  0  0  0  0  0
   -0.6931  -11.5088   11.8299 O   0  0  0  0  0  0  0  0  0  0  0  0
   -0.2812  -14.4238   11.8596 C   0  0  0  0  0  0  0  0  0  0  0  0
   -1.0848  -15.2250   12.7467 C   0  0  0  0  0  0  0  0  0  0  0  0
   -1.3775  -16.4507   12.1346 C   0  0  0  0  0  0  0  0  0  0  0  0
   -0.6239  -16.5825   11.0549 N   0  0  0  0  0  0  0  0  0  0  0  0
    0.1828  -15.4926   11.1128 N   0  0  0  0  0  0  0  0  0  0  0  0
    2.4594  -12.7995   10.4547 H   0  0  0  0  0  0  0  0  0  0  0  0
    4.1283  -13.0858   10.3697 H   0  0  0  0  0  0  0  0  0  0  0  0
    3.2779  -12.3798    9.0106 H   0  0  0  0  0  0  0  0  0  0  0  0
    2.5751  -10.4991    9.9656 H   0  0  0  0  0  0  0  0  0  0  0  0
    4.1825  -10.3643    9.8609 H   0  0  0  0  0  0  0  0  0  0  0  0
    3.0712   -9.4923   11.4538 H   0  0  0  0  0  0  0  0  0  0  0  0
    3.6617   -8.5096   14.1343 H   0  0  0  0  0  0  0  0  0  0  0  0
    4.0034   -8.0435   12.7726 H   0  0  0  0  0  0  0  0  0  0  0  0
    7.5585   -7.8466   12.3561 H   0  0  0  0  0  0  0  0  0  0  0  0
    9.5928   -8.5388   15.8183 H   0  0  0  0  0  0  0  0  0  0  0  0
    9.8565   -8.7125   14.7761 H   0  0  0  0  0  0  0  0  0  0  0  0
   10.3775   -6.9435   15.3055 H   0  0  0  0  0  0  0  0  0  0  0  0
    6.5777   -3.3806   15.2498 H   0  0  0  0  0  0  0  0  0  0  0  0
    7.9899   -2.0364   14.8892 H   0  0  0  0  0  0  0  0  0  0  0  0
    9.5153   -4.4112   14.9336 H   0  0  0  0  0  0  0  0  0  0  0  0
    6.7317   -5.6611   17.2870 H   0  0  0  0  0  0  0  0  0  0  0  0
    0.9570  -10.2932   11.7435 H   0  0  0  0  0  0  0  0  0  0  0  0
   -1.4360  -14.9200   13.7251 H   0  0  0  0  0  0  0  0  0  0  0  0
   -2.0338  -17.2524   12.4500 H   0  0  0  0  0  0  0  0  0  0  0  0
    1.0328  -15.5964   10.5813 H   0  0  0  0  0  0  0  0  0  0  0  0
  1  2  1  0
  2  3  1  0
  3  4  1  0
  4  5  1  0
  5  6  2  0
  6  7  1  0
  7  8  1  0
  7  9  1  0
  9 10  2  0
 10 11  1  0
 11 12  2  0
 12 13  1  0
 13 14  2  0
  3 15  1  0
 15 16  1  0
 16 17  2  0
 16 18  2  0
 16 19  1  0
 19 20  2  0
 20 21  1  0
 21 22  2  0
 22 23  1  0
 14  5  1  0
 23 19  1  0
 14  9  1  0
  1 24  1  0
  1 25  1  0
  1 26  1  0
  2 27  1  0
  2 28  1  0
  3 29  1  0
  4 30  1  0
  4 31  1  0
  6 32  1  0
  8 33  1  0
  8 34  1  0
  8 35  1  0
 10 36  1  0
 11 37  1  0
 12 38  1  0
 13 39  1  0
 15 40  1  0
 20 41  1  0
 21 42  1  0
 23 43  1  0
M  END
>  <Energy>  (463) 
1630.1041753409399

>  <compound_id>  (463) 
25433

>  <target_id>  (463) 
1

>  <reference_id>  (463) 
93

>  <inspiration_ids>  (463) 
[93, 112]

>  <energy_score>  (463) 
1649.3578735071205

>  <distance_score>  (463) 
12.355103924751203

>  <path>  (463) 
/opt/xchem-fragalysis-2/maxwin/BulkDock/SCRATCH/511017/C25433-P93/C25433-P93.minimised.mol

>  <scratch_subdir>  (463) 
/opt/xchem-fragalysis-2/maxwin/BulkDock/SCRATCH/511017/C25433-P93

>  <fragmenstein_runtime>  (463) 
12.781998872756958

>  <fragmenstein_outcome>  (463) 
too moved

>  <fragmenstein_mode>  (463) 
expansion

>  <fragmenstein_error>  (463) 


$$$$
C25433-P112
     RDKit          3D

 43 45  0  0  0  0  0  0  0  0999 V2000
    1.0699   -9.9594   10.6431 C   0  0  0  0  0  0  0  0  0  0  0  0
    0.6701  -10.8580   11.7249 C   0  0  0  0  0  0  0  0  0  0  0  0
    1.7192  -11.0097   12.8430 C   0  0  0  0  0  0  0  0  0  0  0  0
    3.3644  -10.3485   13.9296 C   0  0  0  0  0  0  0  0  0  0  0  0
    4.6673   -9.5799   13.6768 C   0  0  0  0  0  0  0  0  0  0  0  0
    5.7744  -10.4293   13.7515 C   0  0  0  0  0  0  0  0  0  0  0  0
    7.0512   -9.5911   13.9218 N   0  0  0  0  0  0  0  0  0  0  0  0
    8.5290  -10.0983   14.9718 C   0  0  0  0  0  0  0  0  0  0  0  0
    6.3986   -7.9539   14.3287 C   0  0  0  0  0  0  0  0  0  0  0  0
    6.8906   -6.9143   15.1093 C   0  0  0  0  0  0  0  0  0  0  0  0
    8.0901   -6.7279   14.4216 C   0  0  0  0  0  0  0  0  0  0  0  0
    7.7702   -7.0524   12.7678 C   0  0  0  0  0  0  0  0  0  0  0  0
    6.4246   -7.1921   12.6748 C   0  0  0  0  0  0  0  0  0  0  0  0
    5.2235   -7.8017   13.6540 C   0  0  0  0  0  0  0  0  0  0  0  0
    0.9482  -12.8234   13.1815 N   0  0  0  0  0  0  0  0  0  0  0  0
   -0.2687  -13.9387   12.4048 S   0  0  0  0  0  0  0  0  0  0  0  0
   -1.1307  -14.3778   13.5011 O   0  0  0  0  0  0  0  0  0  0  0  0
   -0.8482  -13.2620   11.2886 O   0  0  0  0  0  0  0  0  0  0  0  0
   -0.2890  -15.6400   11.7445 C   0  0  0  0  0  0  0  0  0  0  0  0
    0.4196  -16.5578   10.9849 C   0  0  0  0  0  0  0  0  0  0  0  0
   -0.3726  -17.7346   10.9148 C   0  0  0  0  0  0  0  0  0  0  0  0
   -1.5448  -17.5924   11.5257 N   0  0  0  0  0  0  0  0  0  0  0  0
   -1.4712  -16.3436   12.0090 N   0  0  0  0  0  0  0  0  0  0  0  0
    1.1735   -8.9365   10.9652 H   0  0  0  0  0  0  0  0  0  0  0  0
    0.3983   -9.9096    9.7941 H   0  0  0  0  0  0  0  0  0  0  0  0
    2.0093  -10.3966   10.2877 H   0  0  0  0  0  0  0  0  0  0  0  0
    0.7004  -11.8191   11.2622 H   0  0  0  0  0  0  0  0  0  0  0  0
   -0.3475  -10.8768   12.1127 H   0  0  0  0  0  0  0  0  0  0  0  0
    2.3894  -10.8209   11.9509 H   0  0  0  0  0  0  0  0  0  0  0  0
    3.0076   -9.6770   14.6484 H   0  0  0  0  0  0  0  0  0  0  0  0
    3.8027  -10.9987   14.7602 H   0  0  0  0  0  0  0  0  0  0  0  0
    5.8539  -11.5033   13.6961 H   0  0  0  0  0  0  0  0  0  0  0  0
    9.0243  -10.8373   14.3677 H   0  0  0  0  0  0  0  0  0  0  0  0
    9.2928   -9.3323   15.1873 H   0  0  0  0  0  0  0  0  0  0  0  0
    8.2100  -10.2514   15.9976 H   0  0  0  0  0  0  0  0  0  0  0  0
    6.4114   -6.1912   15.7486 H   0  0  0  0  0  0  0  0  0  0  0  0
    8.3947   -5.7291   14.6156 H   0  0  0  0  0  0  0  0  0  0  0  0
    8.2889   -6.9924   11.8355 H   0  0  0  0  0  0  0  0  0  0  0  0
    6.4699   -7.2105   11.6028 H   0  0  0  0  0  0  0  0  0  0  0  0
    1.7029  -13.4975   13.1676 H   0  0  0  0  0  0  0  0  0  0  0  0
    1.3993  -16.4280   10.5515 H   0  0  0  0  0  0  0  0  0  0  0  0
   -0.1354  -18.6741   10.4316 H   0  0  0  0  0  0  0  0  0  0  0  0
   -2.2366  -15.9946   12.5762 H   0  0  0  0  0  0  0  0  0  0  0  0
  1  2  1  0
  2  3  1  0
  3  4  1  0
  4  5  1  0
  5  6  2  0
  6  7  1  0
  7  8  1  0
  7  9  1  0
  9 10  2  0
 10 11  1  0
 11 12  2  0
 12 13  1  0
 13 14  2  0
  3 15  1  0
 15 16  1  0
 16 17  2  0
 16 18  2  0
 16 19  1  0
 19 20  2  0
 20 21  1  0
 21 22  2  0
 22 23  1  0
 14  5  1  0
 23 19  1  0
 14  9  1  0
  1 24  1  0
  1 25  1  0
  1 26  1  0
  2 27  1  0
  2 28  1  0
  3 29  1  0
  4 30  1  0
  4 31  1  0
  6 32  1  0
  8 33  1  0
  8 34  1  0
  8 35  1  0
 10 36  1  0
 11 37  1  0
 12 38  1  0
 13 39  1  0
 15 40  1  0
 20 41  1  0
 21 42  1  0
 23 43  1  0
M  END
>  <Energy>  (464) 
690.7282409915191

>  <compound_id>  (464) 
25433

>  <target_id>  (464) 
1

>  <reference_id>  (464) 
112

>  <inspiration_ids>  (464) 
[93, 112]

>  <energy_score>  (464) 
709.9819391576893

>  <distance_score>  (464) 
12.320554565358671

>  <path>  (464) 
/opt/xchem-fragalysis-2/maxwin/BulkDock/SCRATCH/511017/C25433-P112/C25433-P112.minimised.mol

>  <scratch_subdir>  (464) 
/opt/xchem-fragalysis-2/maxwin/BulkDock/SCRATCH/511017/C25433-P112

>  <fragmenstein_runtime>  (464) 
11.689061880111694

>  <fragmenstein_outcome>  (464) 
too moved

>  <fragmenstein_mode>  (464) 
expansion

>  <fragmenstein_error>  (464) 


$$$$
C25439-P93
     RDKit          3D

 36 38  0  0  0  0  0  0  0  0999 V2000
    3.4296  -10.8610   11.4866 O   0  0  0  0  0  0  0  0  0  0  0  0
    2.9349   -9.7699   11.3399 C   0  0  0  0  0  0  0  0  0  0  0  0
    1.6204   -9.9198   10.5994 C   0  0  0  0  0  0  0  0  0  0  0  0
    0.5839  -11.2254   11.5336 C   0  0  0  0  0  0  0  0  0  0  0  0
    0.0618  -12.7857   11.5154 C   0  0  0  0  0  0  0  0  0  0  0  0
    0.3395  -13.9812   12.1724 C   0  0  0  0  0  0  0  0  0  0  0  0
   -0.2684  -15.0650   11.5123 C   0  0  0  0  0  0  0  0  0  0  0  0
   -1.3410  -14.5838   10.8885 N   0  0  0  0  0  0  0  0  0  0  0  0
   -1.0722  -13.2345   10.8407 N   0  0  0  0  0  0  0  0  0  0  0  0
    3.4732   -8.0488   12.0187 N   0  0  0  0  0  0  0  0  0  0  0  0
    4.8736   -7.5378   13.2706 C   0  0  0  0  0  0  0  0  0  0  0  0
    4.5536   -6.4430   14.3032 C   0  0  0  0  0  0  0  0  0  0  0  0
    5.6106   -5.8796   15.6230 C   0  0  0  0  0  0  0  0  0  0  0  0
    7.3526   -5.8239   15.7806 C   0  0  0  0  0  0  0  0  0  0  0  0
    8.6013   -4.3203   15.2124 C   0  0  0  0  0  0  0  0  0  0  0  0
    9.9287   -4.9381   14.5295 C   0  0  0  0  0  0  0  0  0  0  0  0
    9.7934   -6.8228   14.8559 N   0  0  0  0  0  0  0  0  0  0  0  0
   11.2627   -6.2771   15.8963 C   0  0  0  0  0  0  0  0  0  0  0  0
   12.3445   -7.0724   15.9566 F   0  0  0  0  0  0  0  0  0  0  0  0
   11.7520   -4.9635   15.8865 F   0  0  0  0  0  0  0  0  0  0  0  0
    7.9441   -7.0177   14.9411 C   0  0  0  0  0  0  0  0  0  0  0  0
    6.5401   -7.8056   13.8288 C   0  0  0  0  0  0  0  0  0  0  0  0
    2.0542  -10.3257    9.7098 H   0  0  0  0  0  0  0  0  0  0  0  0
    1.2084   -8.9125   10.6282 H   0  0  0  0  0  0  0  0  0  0  0  0
   -0.3139  -10.7693   11.9161 H   0  0  0  0  0  0  0  0  0  0  0  0
    1.2646  -11.3279   12.3342 H   0  0  0  0  0  0  0  0  0  0  0  0
    1.0182  -14.1047   12.9574 H   0  0  0  0  0  0  0  0  0  0  0  0
   -0.1296  -16.1327   11.6293 H   0  0  0  0  0  0  0  0  0  0  0  0
   -1.7476  -12.6379   10.3816 H   0  0  0  0  0  0  0  0  0  0  0  0
    2.8301   -7.3256   11.7387 H   0  0  0  0  0  0  0  0  0  0  0  0
    3.6293   -5.8790   14.3914 H   0  0  0  0  0  0  0  0  0  0  0  0
    5.0685   -5.1164   16.1899 H   0  0  0  0  0  0  0  0  0  0  0  0
    8.2350   -3.2888   15.0801 H   0  0  0  0  0  0  0  0  0  0  0  0
   10.8523   -4.4767   14.1775 H   0  0  0  0  0  0  0  0  0  0  0  0
   10.8929   -6.1984   16.8490 H   0  0  0  0  0  0  0  0  0  0  0  0
    7.0205   -8.0643   12.8493 H   0  0  0  0  0  0  0  0  0  0  0  0
  1  2  2  0
  2  3  1  0
  3  4  1  0
  4  5  1  0
  5  6  2  0
  6  7  1  0
  7  8  2  0
  8  9  1  0
  2 10  1  0
 10 11  1  0
 11 12  2  0
 12 13  1  0
 13 14  2  0
 14 15  1  0
 15 16  2  0
 16 17  1  0
 17 18  1  0
 18 19  1  0
 18 20  1  0
 17 21  1  0
 21 22  2  0
  9  5  1  0
 22 11  1  0
 21 14  1  0
  3 23  1  0
  3 24  1  0
  4 25  1  0
  4 26  1  0
  6 27  1  0
  7 28  1  0
  9 29  1  0
 10 30  1  0
 12 31  1  0
 13 32  1  0
 15 33  1  0
 16 34  1  0
 18 35  1  0
 22 36  1  0
M  END
>  <Energy>  (465) 
966.53792517413729

>  <compound_id>  (465) 
25439

>  <target_id>  (465) 
1

>  <reference_id>  (465) 
93

>  <inspiration_ids>  (465) 
[93, 112]

>  <energy_score>  (465) 
910.9377917512495

>  <distance_score>  (465) 
13.029054486789741

>  <path>  (465) 
/opt/xchem-fragalysis-2/maxwin/BulkDock/SCRATCH/511017/C25439-P93/C25439-P93.minimised.mol

>  <scratch_subdir>  (465) 
/opt/xchem-fragalysis-2/maxwin/BulkDock/SCRATCH/511017/C25439-P93

>  <fragmenstein_runtime>  (465) 
13.700894355773926

>  <fragmenstein_outcome>  (465) 
too moved

>  <fragmenstein_mode>  (465) 
expansion

>  <fragmenstein_error>  (465) 


$$$$
C25439-P112
     RDKit          3D

 36 38  0  0  0  0  0  0  0  0999 V2000
    1.7783  -10.0678   11.1887 O   0  0  0  0  0  0  0  0  0  0  0  0
    2.0939  -10.6382   12.2313 C   0  0  0  0  0  0  0  0  0  0  0  0
    0.7839  -12.1766   12.5814 C   0  0  0  0  0  0  0  0  0  0  0  0
    0.2117  -13.4070   11.7505 C   0  0  0  0  0  0  0  0  0  0  0  0
   -0.6835  -14.7739   11.5720 C   0  0  0  0  0  0  0  0  0  0  0  0
   -2.0113  -15.0548   11.1535 C   0  0  0  0  0  0  0  0  0  0  0  0
   -2.1160  -16.4054   10.7608 C   0  0  0  0  0  0  0  0  0  0  0  0
   -0.9218  -16.9744   10.7543 N   0  0  0  0  0  0  0  0  0  0  0  0
   -0.0708  -16.0022   11.1988 N   0  0  0  0  0  0  0  0  0  0  0  0
    3.4977   -9.9762   13.4577 N   0  0  0  0  0  0  0  0  0  0  0  0
    4.4700   -8.3435   13.4475 C   0  0  0  0  0  0  0  0  0  0  0  0
    4.1254   -6.9974   13.1166 C   0  0  0  0  0  0  0  0  0  0  0  0
    3.8903   -5.5828   14.0625 C   0  0  0  0  0  0  0  0  0  0  0  0
    4.4507   -5.5957   15.2962 C   0  0  0  0  0  0  0  0  0  0  0  0
    4.5780   -5.2769   16.6371 C   0  0  0  0  0  0  0  0  0  0  0  0
    5.8392   -5.7734   17.0638 C   0  0  0  0  0  0  0  0  0  0  0  0
    6.5691   -6.0273   15.9302 N   0  0  0  0  0  0  0  0  0  0  0  0
    7.8984   -6.3393   15.2415 C   0  0  0  0  0  0  0  0  0  0  0  0
    8.4795   -5.3660   14.4298 F   0  0  0  0  0  0  0  0  0  0  0  0
    9.0729   -7.1698   15.2995 F   0  0  0  0  0  0  0  0  0  0  0  0
    5.6038   -6.2387   14.9903 C   0  0  0  0  0  0  0  0  0  0  0  0
    5.5669   -7.5776   13.9050 C   0  0  0  0  0  0  0  0  0  0  0  0
   -0.1520  -11.6149   12.6003 H   0  0  0  0  0  0  0  0  0  0  0  0
    1.0344  -12.4894   13.5697 H   0  0  0  0  0  0  0  0  0  0  0  0
   -0.4046  -12.7990   11.1037 H   0  0  0  0  0  0  0  0  0  0  0  0
    1.1475  -13.8021   11.4393 H   0  0  0  0  0  0  0  0  0  0  0  0
   -2.8047  -14.3634   10.9451 H   0  0  0  0  0  0  0  0  0  0  0  0
   -2.9734  -16.9508   10.3908 H   0  0  0  0  0  0  0  0  0  0  0  0
    0.9019  -16.2658   11.3361 H   0  0  0  0  0  0  0  0  0  0  0  0
    3.5288  -10.5456   14.2722 H   0  0  0  0  0  0  0  0  0  0  0  0
    3.6484   -6.8452   12.1321 H   0  0  0  0  0  0  0  0  0  0  0  0
    3.2727   -4.7756   13.6651 H   0  0  0  0  0  0  0  0  0  0  0  0
    3.8317   -4.8232   17.2763 H   0  0  0  0  0  0  0  0  0  0  0  0
    6.2612   -5.7949   18.0577 H   0  0  0  0  0  0  0  0  0  0  0  0
    7.4249   -7.0859   14.7398 H   0  0  0  0  0  0  0  0  0  0  0  0
    6.4562   -8.1264   14.0412 H   0  0  0  0  0  0  0  0  0  0  0  0
  1  2  2  0
  2  3  1  0
  3  4  1  0
  4  5  1  0
  5  6  2  0
  6  7  1  0
  7  8  2  0
  8  9  1  0
  2 10  1  0
 10 11  1  0
 11 12  2  0
 12 13  1  0
 13 14  2  0
 14 15  1  0
 15 16  2  0
 16 17  1  0
 17 18  1  0
 18 19  1  0
 18 20  1  0
 17 21  1  0
 21 22  2  0
  9  5  1  0
 22 11  1  0
 21 14  1  0
  3 23  1  0
  3 24  1  0
  4 25  1  0
  4 26  1  0
  6 27  1  0
  7 28  1  0
  9 29  1  0
 10 30  1  0
 12 31  1  0
 13 32  1  0
 15 33  1  0
 16 34  1  0
 18 35  1  0
 22 36  1  0
M  END
>  <Energy>  (466) 
695.38006659348196

>  <compound_id>  (466) 
25439

>  <target_id>  (466) 
1

>  <reference_id>  (466) 
112

>  <inspiration_ids>  (466) 
[93, 112]

>  <energy_score>  (466) 
639.7799331705944

>  <distance_score>  (466) 
12.776524334189528

>  <path>  (466) 
/opt/xchem-fragalysis-2/maxwin/BulkDock/SCRATCH/511017/C25439-P112/C25439-P112.minimised.mol

>  <scratch_subdir>  (466) 
/opt/xchem-fragalysis-2/maxwin/BulkDock/SCRATCH/511017/C25439-P112

>  <fragmenstein_runtime>  (466) 
12.953819274902344

>  <fragmenstein_outcome>  (466) 
too moved

>  <fragmenstein_mode>  (466) 
expansion

>  <fragmenstein_error>  (466) 


$$$$
C25440-P93
     RDKit          3D

 33 35  0  0  0  0  0  0  0  0999 V2000
   -2.2900   -8.4842   16.6649 O   0  0  0  0  0  0  0  0  0  0  0  0
   -1.9047   -8.7498   17.7752 C   0  0  0  0  0  0  0  0  0  0  0  0
   -2.7527   -9.7652   18.6676 C   0  0  0  0  0  0  0  0  0  0  0  0
   -3.5283  -10.9191   17.9737 C   0  0  0  0  0  0  0  0  0  0  0  0
   -4.6639  -10.9558   17.1759 C   0  0  0  0  0  0  0  0  0  0  0  0
   -4.9773  -12.3224   16.9882 C   0  0  0  0  0  0  0  0  0  0  0  0
   -4.1090  -13.1185   17.6084 N   0  0  0  0  0  0  0  0  0  0  0  0
   -3.2449  -12.2579   18.1895 N   0  0  0  0  0  0  0  0  0  0  0  0
   -0.7270   -8.2532   18.5354 N   0  0  0  0  0  0  0  0  0  0  0  0
    0.3480   -7.3891   18.1439 C   0  0  0  0  0  0  0  0  0  0  0  0
    0.3174   -6.5639   17.0264 C   0  0  0  0  0  0  0  0  0  0  0  0
    1.4488   -5.8045   16.6353 C   0  0  0  0  0  0  0  0  0  0  0  0
    2.6754   -5.9410   17.3153 C   0  0  0  0  0  0  0  0  0  0  0  0
    4.0014   -5.5206   17.0385 C   0  0  0  0  0  0  0  0  0  0  0  0
    4.8043   -6.0114   18.0411 C   0  0  0  0  0  0  0  0  0  0  0  0
    3.9922   -6.5852   18.9898 N   0  0  0  0  0  0  0  0  0  0  0  0
    4.5086   -7.0288   20.2742 C   0  0  0  0  0  0  0  0  0  0  0  0
    5.1816   -6.0228   20.9018 F   0  0  0  0  0  0  0  0  0  0  0  0
    3.5237   -7.4119   21.1310 F   0  0  0  0  0  0  0  0  0  0  0  0
    2.7034   -6.6979   18.4905 C   0  0  0  0  0  0  0  0  0  0  0  0
    1.5413   -7.3992   18.9242 C   0  0  0  0  0  0  0  0  0  0  0  0
   -3.4940   -9.1479   19.1919 H   0  0  0  0  0  0  0  0  0  0  0  0
   -2.1182  -10.2095   19.4391 H   0  0  0  0  0  0  0  0  0  0  0  0
   -5.2129  -10.1011   16.8043 H   0  0  0  0  0  0  0  0  0  0  0  0
   -5.7991  -12.7584   16.4348 H   0  0  0  0  0  0  0  0  0  0  0  0
   -2.4817  -12.6495   18.7315 H   0  0  0  0  0  0  0  0  0  0  0  0
   -0.6612   -8.7573   19.4160 H   0  0  0  0  0  0  0  0  0  0  0  0
   -0.5864   -6.4978   16.4242 H   0  0  0  0  0  0  0  0  0  0  0  0
    1.3886   -5.1868   15.7426 H   0  0  0  0  0  0  0  0  0  0  0  0
    4.3266   -4.9752   16.1626 H   0  0  0  0  0  0  0  0  0  0  0  0
    5.8736   -5.9729   18.1944 H   0  0  0  0  0  0  0  0  0  0  0  0
    5.1959   -7.8604   20.1089 H   0  0  0  0  0  0  0  0  0  0  0  0
    1.5865   -8.0159   19.8175 H   0  0  0  0  0  0  0  0  0  0  0  0
  1  2  2  0
  2  3  1  0
  3  4  1  0
  4  5  2  0
  5  6  1  0
  6  7  2  0
  7  8  1  0
  2  9  1  0
  9 10  1  0
 10 11  2  0
 11 12  1  0
 12 13  2  0
 13 14  1  0
 14 15  2  0
 15 16  1  0
 16 17  1  0
 17 18  1  0
 17 19  1  0
 16 20  1  0
 20 21  2  0
  8  4  1  0
 21 10  1  0
 20 13  1  0
  3 22  1  0
  3 23  1  0
  5 24  1  0
  6 25  1  0
  8 26  1  0
  9 27  1  0
 11 28  1  0
 12 29  1  0
 14 30  1  0
 15 31  1  0
 17 32  1  0
 21 33  1  0
M  END
>  <Energy>  (467) 
77.225202337611947

>  <compound_id>  (467) 
25440

>  <target_id>  (467) 
1

>  <reference_id>  (467) 
93

>  <inspiration_ids>  (467) 
[93, 112]

>  <energy_score>  (467) 
-4.7390142420078405

>  <distance_score>  (467) 
14.71264109863281

>  <path>  (467) 
/opt/xchem-fragalysis-2/maxwin/BulkDock/SCRATCH/511017/C25440-P93/C25440-P93.minimised.mol

>  <scratch_subdir>  (467) 
/opt/xchem-fragalysis-2/maxwin/BulkDock/SCRATCH/511017/C25440-P93

>  <fragmenstein_runtime>  (467) 
10.48660659790039

>  <fragmenstein_outcome>  (467) 
too moved

>  <fragmenstein_mode>  (467) 
expansion

>  <fragmenstein_error>  (467) 


$$$$
C25440-P112
     RDKit          3D

 33 35  0  0  0  0  0  0  0  0999 V2000
    0.8863  -11.5004   12.3190 O   0  0  0  0  0  0  0  0  0  0  0  0
    0.8214  -12.2878   13.2938 C   0  0  0  0  0  0  0  0  0  0  0  0
   -0.4211  -13.3634   13.0449 C   0  0  0  0  0  0  0  0  0  0  0  0
   -1.9758  -13.4982   13.2191 C   0  0  0  0  0  0  0  0  0  0  0  0
   -3.0501  -12.6722   12.9218 C   0  0  0  0  0  0  0  0  0  0  0  0
   -4.2205  -13.4417   13.1262 C   0  0  0  0  0  0  0  0  0  0  0  0
   -3.9402  -14.6897   13.4879 N   0  0  0  0  0  0  0  0  0  0  0  0
   -2.5978  -14.7272   13.4339 N   0  0  0  0  0  0  0  0  0  0  0  0
    2.0231  -12.3846   14.7426 N   0  0  0  0  0  0  0  0  0  0  0  0
    3.7683  -11.4073   15.0724 C   0  0  0  0  0  0  0  0  0  0  0  0
    3.6624  -10.2684   14.3202 C   0  0  0  0  0  0  0  0  0  0  0  0
    4.2469   -9.2536   13.5929 C   0  0  0  0  0  0  0  0  0  0  0  0
    5.4136   -9.1418   14.0787 C   0  0  0  0  0  0  0  0  0  0  0  0
    6.3111   -7.7833   14.0172 C   0  0  0  0  0  0  0  0  0  0  0  0
    7.6163   -8.1504   13.9117 C   0  0  0  0  0  0  0  0  0  0  0  0
    7.8010   -9.5473   14.2093 N   0  0  0  0  0  0  0  0  0  0  0  0
    9.0496  -10.0371   14.9113 C   0  0  0  0  0  0  0  0  0  0  0  0
    8.9551  -10.5744   16.1537 F   0  0  0  0  0  0  0  0  0  0  0  0
    9.8932  -10.7769   14.1572 F   0  0  0  0  0  0  0  0  0  0  0  0
    6.1603  -10.2976   13.9228 C   0  0  0  0  0  0  0  0  0  0  0  0
    5.1507  -11.4927   14.2532 C   0  0  0  0  0  0  0  0  0  0  0  0
    0.0363  -14.2750   12.6405 H   0  0  0  0  0  0  0  0  0  0  0  0
   -0.5933  -12.9913   12.0039 H   0  0  0  0  0  0  0  0  0  0  0  0
   -2.9911  -11.6462   12.5826 H   0  0  0  0  0  0  0  0  0  0  0  0
   -5.2539  -13.1388   13.0134 H   0  0  0  0  0  0  0  0  0  0  0  0
   -2.1710  -15.6401   13.5255 H   0  0  0  0  0  0  0  0  0  0  0  0
    1.6841  -13.0410   15.4288 H   0  0  0  0  0  0  0  0  0  0  0  0
    2.9327   -9.6676   14.7418 H   0  0  0  0  0  0  0  0  0  0  0  0
    3.9684   -8.2309   13.3725 H   0  0  0  0  0  0  0  0  0  0  0  0
    5.7165   -6.9094   13.8316 H   0  0  0  0  0  0  0  0  0  0  0  0
    8.4096   -7.4612   13.9853 H   0  0  0  0  0  0  0  0  0  0  0  0
    9.6053   -9.1221   15.0941 H   0  0  0  0  0  0  0  0  0  0  0  0
    5.6348  -12.4020   13.9494 H   0  0  0  0  0  0  0  0  0  0  0  0
  1  2  2  0
  2  3  1  0
  3  4  1  0
  4  5  2  0
  5  6  1  0
  6  7  2  0
  7  8  1  0
  2  9  1  0
  9 10  1  0
 10 11  2  0
 11 12  1  0
 12 13  2  0
 13 14  1  0
 14 15  2  0
 15 16  1  0
 16 17  1  0
 17 18  1  0
 17 19  1  0
 16 20  1  0
 20 21  2  0
  8  4  1  0
 21 10  1  0
 20 13  1  0
  3 22  1  0
  3 23  1  0
  5 24  1  0
  6 25  1  0
  8 26  1  0
  9 27  1  0
 11 28  1  0
 12 29  1  0
 14 30  1  0
 15 31  1  0
 17 32  1  0
 21 33  1  0
M  END
>  <Energy>  (468) 
620.26349068075444

>  <compound_id>  (468) 
25440

>  <target_id>  (468) 
1

>  <reference_id>  (468) 
112

>  <inspiration_ids>  (468) 
[93, 112]

>  <energy_score>  (468) 
538.2992741011321

>  <distance_score>  (468) 
13.131197654871741

>  <path>  (468) 
/opt/xchem-fragalysis-2/maxwin/BulkDock/SCRATCH/511017/C25440-P112/C25440-P112.minimised.mol

>  <scratch_subdir>  (468) 
/opt/xchem-fragalysis-2/maxwin/BulkDock/SCRATCH/511017/C25440-P112

>  <fragmenstein_runtime>  (468) 
6.313826084136963

>  <fragmenstein_outcome>  (468) 
too moved

>  <fragmenstein_mode>  (468) 
expansion

>  <fragmenstein_error>  (468) 


$$$$
C25442-P93
     RDKit          3D

 40 42  0  0  0  0  0  0  0  0999 V2000
   -1.1471  -11.7133   11.7983 C   0  0  0  0  0  0  0  0  0  0  0  0
    0.3256  -12.2192   11.9205 C   0  0  0  0  0  0  0  0  0  0  0  0
    1.5638  -11.1014   11.4507 N   0  0  0  0  0  0  0  0  0  0  0  0
    3.2440  -10.4491   12.0927 C   0  0  0  0  0  0  0  0  0  0  0  0
    4.4735   -9.3821   13.5441 C   0  0  0  0  0  0  0  0  0  0  0  0
    6.0161   -7.8557   13.9791 C   0  0  0  0  0  0  0  0  0  0  0  0
    7.3787   -6.6417   15.2008 C   0  0  0  0  0  0  0  0  0  0  0  0
    8.5632   -7.0392   14.6546 C   0  0  0  0  0  0  0  0  0  0  0  0
    8.5581   -5.6024   14.5885 N   0  0  0  0  0  0  0  0  0  0  0  0
   10.2351   -4.8594   14.5446 C   0  0  0  0  0  0  0  0  0  0  0  0
   10.8977   -3.5812   14.8158 C   0  0  0  0  0  0  0  0  0  0  0  0
   10.4047   -2.2894   15.0676 C   0  0  0  0  0  0  0  0  0  0  0  0
    9.0568   -2.0533   15.0280 C   0  0  0  0  0  0  0  0  0  0  0  0
    8.2289   -3.1741   14.8710 C   0  0  0  0  0  0  0  0  0  0  0  0
    8.6202   -4.8910   14.6708 C   0  0  0  0  0  0  0  0  0  0  0  0
    0.1160  -13.6349   11.3152 C   0  0  0  0  0  0  0  0  0  0  0  0
   -0.4713  -14.7407   11.9403 C   0  0  0  0  0  0  0  0  0  0  0  0
   -0.7691  -15.6633   10.9269 C   0  0  0  0  0  0  0  0  0  0  0  0
   -0.4182  -15.1942    9.7294 N   0  0  0  0  0  0  0  0  0  0  0  0
    0.1104  -13.9715    9.9889 N   0  0  0  0  0  0  0  0  0  0  0  0
   -1.8846  -12.4702   12.0968 H   0  0  0  0  0  0  0  0  0  0  0  0
   -1.3760  -11.4479   10.7625 H   0  0  0  0  0  0  0  0  0  0  0  0
   -1.3361  -10.8917   12.4825 H   0  0  0  0  0  0  0  0  0  0  0  0
    0.4412  -12.4079   12.9918 H   0  0  0  0  0  0  0  0  0  0  0  0
    1.0927  -10.2219   11.6579 H   0  0  0  0  0  0  0  0  0  0  0  0
    3.1177   -9.6149   11.3415 H   0  0  0  0  0  0  0  0  0  0  0  0
    3.6908  -11.1303   11.2833 H   0  0  0  0  0  0  0  0  0  0  0  0
    5.1865  -10.2589   13.7490 H   0  0  0  0  0  0  0  0  0  0  0  0
    3.9538  -10.0780   14.2228 H   0  0  0  0  0  0  0  0  0  0  0  0
    5.9643   -7.3126   13.0227 H   0  0  0  0  0  0  0  0  0  0  0  0
    6.7991   -8.4595   13.6454 H   0  0  0  0  0  0  0  0  0  0  0  0
    9.4866   -7.5254   15.0329 H   0  0  0  0  0  0  0  0  0  0  0  0
    7.9768   -5.3084   15.8545 H   0  0  0  0  0  0  0  0  0  0  0  0
   11.9898   -3.6160   14.7562 H   0  0  0  0  0  0  0  0  0  0  0  0
   11.1031   -1.4628   15.1645 H   0  0  0  0  0  0  0  0  0  0  0  0
    8.6433   -1.0524   15.0793 H   0  0  0  0  0  0  0  0  0  0  0  0
    7.1563   -2.9314   14.8559 H   0  0  0  0  0  0  0  0  0  0  0  0
   -0.7334  -14.8070   12.9873 H   0  0  0  0  0  0  0  0  0  0  0  0
   -1.2451  -16.6326   11.0025 H   0  0  0  0  0  0  0  0  0  0  0  0
    0.4182  -13.3998    9.2089 H   0  0  0  0  0  0  0  0  0  0  0  0
  1  2  1  0
  2  3  1  0
  3  4  1  0
  4  5  1  0
  5  6  1  0
  6  7  1  0
  7  8  2  0
  8  9  1  0
  9 10  1  0
 10 11  2  0
 11 12  1  0
 12 13  2  0
 13 14  1  0
 14 15  2  0
  2 16  1  0
 16 17  2  0
 17 18  1  0
 18 19  2  0
 19 20  1  0
 15  7  1  0
 20 16  1  0
 15 10  1  0
  1 21  1  0
  1 22  1  0
  1 23  1  0
  2 24  1  0
  3 25  1  0
  4 26  1  0
  4 27  1  0
  5 28  1  0
  5 29  1  0
  6 30  1  0
  6 31  1  0
  8 32  1  0
  9 33  1  0
 11 34  1  0
 12 35  1  0
 13 36  1  0
 14 37  1  0
 17 38  1  0
 18 39  1  0
 20 40  1  0
M  END
>  <Energy>  (469) 
1389.7619279871894

>  <compound_id>  (469) 
25442

>  <target_id>  (469) 
1

>  <reference_id>  (469) 
93

>  <inspiration_ids>  (469) 
[93, 112]

>  <energy_score>  (469) 
1360.1501665436876

>  <distance_score>  (469) 
12.192915695055284

>  <path>  (469) 
/opt/xchem-fragalysis-2/maxwin/BulkDock/SCRATCH/511017/C25442-P93/C25442-P93.minimised.mol

>  <scratch_subdir>  (469) 
/opt/xchem-fragalysis-2/maxwin/BulkDock/SCRATCH/511017/C25442-P93

>  <fragmenstein_runtime>  (469) 
10.443928003311157

>  <fragmenstein_outcome>  (469) 
too moved

>  <fragmenstein_mode>  (469) 
expansion

>  <fragmenstein_error>  (469) 


$$$$
C25442-P112
     RDKit          3D

 40 42  0  0  0  0  0  0  0  0999 V2000
    3.5281  -16.6548   10.0982 C   0  0  0  0  0  0  0  0  0  0  0  0
    4.4713  -16.7546   11.3913 C   0  0  0  0  0  0  0  0  0  0  0  0
    5.2444  -15.3321   12.3980 N   0  0  0  0  0  0  0  0  0  0  0  0
    6.5068  -13.7637   12.2539 C   0  0  0  0  0  0  0  0  0  0  0  0
    6.7645  -12.0450   13.3401 C   0  0  0  0  0  0  0  0  0  0  0  0
    8.4155  -10.8518   14.1133 C   0  0  0  0  0  0  0  0  0  0  0  0
    9.9199  -11.2083   14.7937 C   0  0  0  0  0  0  0  0  0  0  0  0
   10.1116  -11.3025   16.1719 C   0  0  0  0  0  0  0  0  0  0  0  0
   11.3914  -11.6540   16.4504 N   0  0  0  0  0  0  0  0  0  0  0  0
   12.1280  -11.6727   15.3001 C   0  0  0  0  0  0  0  0  0  0  0  0
   13.4774  -12.0047   15.1247 C   0  0  0  0  0  0  0  0  0  0  0  0
   14.0316  -11.8641   13.8557 C   0  0  0  0  0  0  0  0  0  0  0  0
   13.2518  -11.4343   12.7955 C   0  0  0  0  0  0  0  0  0  0  0  0
   11.8921  -11.1640   12.9831 C   0  0  0  0  0  0  0  0  0  0  0  0
   11.2748  -11.3054   14.2498 C   0  0  0  0  0  0  0  0  0  0  0  0
    4.0138  -18.0133   12.2343 C   0  0  0  0  0  0  0  0  0  0  0  0
    4.4261  -18.6023   13.4172 C   0  0  0  0  0  0  0  0  0  0  0  0
    3.5555  -19.7020   13.6397 C   0  0  0  0  0  0  0  0  0  0  0  0
    2.6734  -19.8632   12.6555 N   0  0  0  0  0  0  0  0  0  0  0  0
    2.9258  -18.8089   11.8547 N   0  0  0  0  0  0  0  0  0  0  0  0
    3.8889  -15.8979    9.3940 H   0  0  0  0  0  0  0  0  0  0  0  0
    3.5811  -17.5992    9.5387 H   0  0  0  0  0  0  0  0  0  0  0  0
    2.4686  -16.4926   10.3189 H   0  0  0  0  0  0  0  0  0  0  0  0
    5.3237  -17.2261   10.8536 H   0  0  0  0  0  0  0  0  0  0  0  0
    5.6447  -15.7902   13.2618 H   0  0  0  0  0  0  0  0  0  0  0  0
    6.0331  -13.5566   11.3115 H   0  0  0  0  0  0  0  0  0  0  0  0
    6.3190  -13.8919   13.2834 H   0  0  0  0  0  0  0  0  0  0  0  0
    6.0659  -12.3722   14.0961 H   0  0  0  0  0  0  0  0  0  0  0  0
    5.9738  -11.2832   13.1164 H   0  0  0  0  0  0  0  0  0  0  0  0
    8.4159  -10.3395   15.1490 H   0  0  0  0  0  0  0  0  0  0  0  0
    7.7653  -10.0025   14.2042 H   0  0  0  0  0  0  0  0  0  0  0  0
    9.4038  -11.1598   16.9727 H   0  0  0  0  0  0  0  0  0  0  0  0
   11.7413  -11.8827   17.3692 H   0  0  0  0  0  0  0  0  0  0  0  0
   14.0838  -12.3624   15.9516 H   0  0  0  0  0  0  0  0  0  0  0  0
   15.0792  -12.1045   13.6920 H   0  0  0  0  0  0  0  0  0  0  0  0
   13.6860  -11.3290   11.8041 H   0  0  0  0  0  0  0  0  0  0  0  0
   11.3344  -10.8688   12.1096 H   0  0  0  0  0  0  0  0  0  0  0  0
    5.2284  -18.2676   14.0584 H   0  0  0  0  0  0  0  0  0  0  0  0
    3.5507  -20.3928   14.4722 H   0  0  0  0  0  0  0  0  0  0  0  0
    2.2834  -18.6454   11.0903 H   0  0  0  0  0  0  0  0  0  0  0  0
  1  2  1  0
  2  3  1  0
  3  4  1  0
  4  5  1  0
  5  6  1  0
  6  7  1  0
  7  8  2  0
  8  9  1  0
  9 10  1  0
 10 11  2  0
 11 12  1  0
 12 13  2  0
 13 14  1  0
 14 15  2  0
  2 16  1  0
 16 17  2  0
 17 18  1  0
 18 19  2  0
 19 20  1  0
 15  7  1  0
 20 16  1  0
 15 10  1  0
  1 21  1  0
  1 22  1  0
  1 23  1  0
  2 24  1  0
  3 25  1  0
  4 26  1  0
  4 27  1  0
  5 28  1  0
  5 29  1  0
  6 30  1  0
  6 31  1  0
  8 32  1  0
  9 33  1  0
 11 34  1  0
 12 35  1  0
 13 36  1  0
 14 37  1  0
 17 38  1  0
 18 39  1  0
 20 40  1  0
M  END
>  <Energy>  (470) 
549.16902834849145

>  <compound_id>  (470) 
25442

>  <target_id>  (470) 
1

>  <reference_id>  (470) 
112

>  <inspiration_ids>  (470) 
[93, 112]

>  <energy_score>  (470) 
519.5572669049845

>  <distance_score>  (470) 
13.488423236068261

>  <path>  (470) 
/opt/xchem-fragalysis-2/maxwin/BulkDock/SCRATCH/511017/C25442-P112/C25442-P112.minimised.mol

>  <scratch_subdir>  (470) 
/opt/xchem-fragalysis-2/maxwin/BulkDock/SCRATCH/511017/C25442-P112

>  <fragmenstein_runtime>  (470) 
9.969495296478271

>  <fragmenstein_outcome>  (470) 
too moved

>  <fragmenstein_mode>  (470) 
expansion

>  <fragmenstein_error>  (470) 


$$$$
C25443-P93
     RDKit          3D

 43 45  0  0  0  0  0  0  0  0999 V2000
    1.3308   -6.3177   16.3711 C   0  0  0  0  0  0  0  0  0  0  0  0
    0.3904   -7.4655   15.8878 N   0  0  0  0  0  0  0  0  0  0  0  0
   -0.3079   -7.0597   17.2567 C   0  0  0  0  0  0  0  0  0  0  0  0
    0.5706   -7.4664   18.5845 C   0  0  0  0  0  0  0  0  0  0  0  0
    1.6997   -6.6393   19.0602 N   0  0  0  0  0  0  0  0  0  0  0  0
    3.0965   -6.9769   19.2963 C   0  0  0  0  0  0  0  0  0  0  0  0
    3.7020   -7.9939   19.0883 O   0  0  0  0  0  0  0  0  0  0  0  0
    3.9767   -5.8676   19.8872 C   0  0  0  0  0  0  0  0  0  0  0  0
    3.5606   -4.5387   20.0846 C   0  0  0  0  0  0  0  0  0  0  0  0
    4.3537   -3.6098   20.7648 C   0  0  0  0  0  0  0  0  0  0  0  0
    5.6119   -3.9567   21.2574 C   0  0  0  0  0  0  0  0  0  0  0  0
    6.1405   -5.2203   20.9575 C   0  0  0  0  0  0  0  0  0  0  0  0
    7.3938   -5.8406   21.2283 C   0  0  0  0  0  0  0  0  0  0  0  0
    7.3161   -7.1276   20.7577 C   0  0  0  0  0  0  0  0  0  0  0  0
    6.0871   -7.2890   20.1722 N   0  0  0  0  0  0  0  0  0  0  0  0
    5.3258   -6.1395   20.2851 C   0  0  0  0  0  0  0  0  0  0  0  0
   -0.6525   -7.5282   14.5625 C   0  0  0  0  0  0  0  0  0  0  0  0
   -0.9323   -6.6346   13.7788 O   0  0  0  0  0  0  0  0  0  0  0  0
   -1.6700   -9.2738   14.3446 C   0  0  0  0  0  0  0  0  0  0  0  0
   -3.4578   -9.5638   15.0972 C   0  0  0  0  0  0  0  0  0  0  0  0
   -4.7720   -9.7218   14.5738 C   0  0  0  0  0  0  0  0  0  0  0  0
   -5.5893  -10.2220   15.6056 C   0  0  0  0  0  0  0  0  0  0  0  0
   -4.9339  -10.2705   16.7585 N   0  0  0  0  0  0  0  0  0  0  0  0
   -3.7368   -9.7238   16.4734 N   0  0  0  0  0  0  0  0  0  0  0  0
    1.5616   -5.7313   15.4673 H   0  0  0  0  0  0  0  0  0  0  0  0
    0.9945   -5.4640   16.9818 H   0  0  0  0  0  0  0  0  0  0  0  0
    2.2797   -6.7532   16.6997 H   0  0  0  0  0  0  0  0  0  0  0  0
   -1.1348   -7.7480   17.4298 H   0  0  0  0  0  0  0  0  0  0  0  0
   -0.7314   -6.0465   17.3030 H   0  0  0  0  0  0  0  0  0  0  0  0
    1.0031   -8.4462   18.3845 H   0  0  0  0  0  0  0  0  0  0  0  0
   -0.1179   -7.5415   19.4328 H   0  0  0  0  0  0  0  0  0  0  0  0
    1.5153   -5.7214   19.4326 H   0  0  0  0  0  0  0  0  0  0  0  0
    2.5946   -4.1833   19.7435 H   0  0  0  0  0  0  0  0  0  0  0  0
    3.9791   -2.6021   20.9333 H   0  0  0  0  0  0  0  0  0  0  0  0
    6.1983   -3.2280   21.8084 H   0  0  0  0  0  0  0  0  0  0  0  0
    8.2373   -5.4055   21.7500 H   0  0  0  0  0  0  0  0  0  0  0  0
    8.0198   -7.9490   20.8023 H   0  0  0  0  0  0  0  0  0  0  0  0
    5.7285   -8.1423   19.7598 H   0  0  0  0  0  0  0  0  0  0  0  0
   -1.1393   -9.7337   15.1538 H   0  0  0  0  0  0  0  0  0  0  0  0
   -1.4413   -9.9018   13.5064 H   0  0  0  0  0  0  0  0  0  0  0  0
   -5.0889   -9.6026   13.5442 H   0  0  0  0  0  0  0  0  0  0  0  0
   -6.6223  -10.5424   15.5590 H   0  0  0  0  0  0  0  0  0  0  0  0
   -3.0934   -9.5643   17.2425 H   0  0  0  0  0  0  0  0  0  0  0  0
  1  2  1  0
  2  3  1  0
  3  4  1  0
  4  5  1  0
  5  6  1  0
  6  7  2  0
  6  8  1  0
  8  9  2  0
  9 10  1  0
 10 11  2  0
 11 12  1  0
 12 13  1  0
 13 14  2  0
 14 15  1  0
 15 16  1  0
  2 17  1  0
 17 18  2  0
 17 19  1  0
 19 20  1  0
 20 21  2  0
 21 22  1  0
 22 23  2  0
 23 24  1  0
 16  8  1  0
 24 20  1  0
 16 12  2  0
  1 25  1  0
  1 26  1  0
  1 27  1  0
  3 28  1  0
  3 29  1  0
  4 30  1  0
  4 31  1  0
  5 32  1  0
  9 33  1  0
 10 34  1  0
 11 35  1  0
 13 36  1  0
 14 37  1  0
 15 38  1  0
 19 39  1  0
 19 40  1  0
 21 41  1  0
 22 42  1  0
 24 43  1  0
M  END
>  <Energy>  (471) 
295.98400539135758

>  <compound_id>  (471) 
25443

>  <target_id>  (471) 
1

>  <reference_id>  (471) 
93

>  <inspiration_ids>  (471) 
[93, 112]

>  <energy_score>  (471) 
215.809886360229

>  <distance_score>  (471) 
14.654112853841761

>  <path>  (471) 
/opt/xchem-fragalysis-2/maxwin/BulkDock/SCRATCH/511017/C25443-P93/C25443-P93.minimised.mol

>  <scratch_subdir>  (471) 
/opt/xchem-fragalysis-2/maxwin/BulkDock/SCRATCH/511017/C25443-P93

>  <fragmenstein_runtime>  (471) 
17.508403539657593

>  <fragmenstein_outcome>  (471) 
too moved

>  <fragmenstein_mode>  (471) 
expansion

>  <fragmenstein_error>  (471) 


$$$$
C25443-P112
     RDKit          3D

 43 45  0  0  0  0  0  0  0  0999 V2000
   11.9709  -13.1893   12.7655 C   0  0  0  0  0  0  0  0  0  0  0  0
   11.0382  -13.7529   13.7674 N   0  0  0  0  0  0  0  0  0  0  0  0
   11.2413  -12.2711   14.4314 C   0  0  0  0  0  0  0  0  0  0  0  0
   12.6910  -11.8633   15.1096 C   0  0  0  0  0  0  0  0  0  0  0  0
   13.1663  -10.4289   15.0776 N   0  0  0  0  0  0  0  0  0  0  0  0
   12.4432   -8.9738   15.6253 C   0  0  0  0  0  0  0  0  0  0  0  0
   11.3640   -9.0125   16.0390 O   0  0  0  0  0  0  0  0  0  0  0  0
   13.0805   -7.0577   15.5436 C   0  0  0  0  0  0  0  0  0  0  0  0
   12.1973   -5.8983   15.9303 C   0  0  0  0  0  0  0  0  0  0  0  0
   12.2796   -4.4826   15.9109 C   0  0  0  0  0  0  0  0  0  0  0  0
   13.4231   -3.8559   15.5372 C   0  0  0  0  0  0  0  0  0  0  0  0
   14.5146   -4.6618   15.2433 C   0  0  0  0  0  0  0  0  0  0  0  0
   15.8619   -4.2234   15.0562 C   0  0  0  0  0  0  0  0  0  0  0  0
   16.6439   -5.3303   14.9943 C   0  0  0  0  0  0  0  0  0  0  0  0
   15.8103   -6.4081   15.0329 N   0  0  0  0  0  0  0  0  0  0  0  0
   14.3979   -6.0953   15.1496 C   0  0  0  0  0  0  0  0  0  0  0  0
    9.6013  -14.0817   13.6629 C   0  0  0  0  0  0  0  0  0  0  0  0
    8.8165  -13.8869   12.7636 O   0  0  0  0  0  0  0  0  0  0  0  0
    9.0608  -14.9074   14.8847 C   0  0  0  0  0  0  0  0  0  0  0  0
    7.8360  -15.8740   14.6016 C   0  0  0  0  0  0  0  0  0  0  0  0
    7.1401  -16.7418   15.4430 C   0  0  0  0  0  0  0  0  0  0  0  0
    6.1151  -17.3240   14.6648 C   0  0  0  0  0  0  0  0  0  0  0  0
    6.1351  -16.8681   13.4125 N   0  0  0  0  0  0  0  0  0  0  0  0
    7.1881  -16.0131   13.3868 N   0  0  0  0  0  0  0  0  0  0  0  0
   11.9514  -13.9526   11.9723 H   0  0  0  0  0  0  0  0  0  0  0  0
   11.6263  -12.3023   12.2154 H   0  0  0  0  0  0  0  0  0  0  0  0
   13.0211  -13.1858   13.0566 H   0  0  0  0  0  0  0  0  0  0  0  0
   10.5384  -12.2916   15.2777 H   0  0  0  0  0  0  0  0  0  0  0  0
   10.8318  -11.4715   13.7936 H   0  0  0  0  0  0  0  0  0  0  0  0
   12.5904  -12.0917   16.1778 H   0  0  0  0  0  0  0  0  0  0  0  0
   13.5255  -12.4676   14.7518 H   0  0  0  0  0  0  0  0  0  0  0  0
   14.1218  -10.2326   14.8352 H   0  0  0  0  0  0  0  0  0  0  0  0
   11.2093   -6.1253   16.2426 H   0  0  0  0  0  0  0  0  0  0  0  0
   11.4177   -3.8979   16.2169 H   0  0  0  0  0  0  0  0  0  0  0  0
   13.5043   -2.7754   15.5708 H   0  0  0  0  0  0  0  0  0  0  0  0
   16.2093   -3.1987   15.0653 H   0  0  0  0  0  0  0  0  0  0  0  0
   17.7159   -5.4514   14.9205 H   0  0  0  0  0  0  0  0  0  0  0  0
   16.1664   -7.3451   15.0703 H   0  0  0  0  0  0  0  0  0  0  0  0
    8.7602  -14.1947   15.6585 H   0  0  0  0  0  0  0  0  0  0  0  0
    9.8770  -15.5265   15.2744 H   0  0  0  0  0  0  0  0  0  0  0  0
    7.3467  -16.9214   16.4888 H   0  0  0  0  0  0  0  0  0  0  0  0
    5.3623  -18.0441   14.9591 H   0  0  0  0  0  0  0  0  0  0  0  0
    7.4061  -15.5162   12.5235 H   0  0  0  0  0  0  0  0  0  0  0  0
  1  2  1  0
  2  3  1  0
  3  4  1  0
  4  5  1  0
  5  6  1  0
  6  7  2  0
  6  8  1  0
  8  9  2  0
  9 10  1  0
 10 11  2  0
 11 12  1  0
 12 13  1  0
 13 14  2  0
 14 15  1  0
 15 16  1  0
  2 17  1  0
 17 18  2  0
 17 19  1  0
 19 20  1  0
 20 21  2  0
 21 22  1  0
 22 23  2  0
 23 24  1  0
 16  8  1  0
 24 20  1  0
 16 12  2  0
  1 25  1  0
  1 26  1  0
  1 27  1  0
  3 28  1  0
  3 29  1  0
  4 30  1  0
  4 31  1  0
  5 32  1  0
  9 33  1  0
 10 34  1  0
 11 35  1  0
 13 36  1  0
 14 37  1  0
 15 38  1  0
 19 39  1  0
 19 40  1  0
 21 41  1  0
 22 42  1  0
 24 43  1  0
M  END
>  <Energy>  (472) 
332.29637240670968

>  <compound_id>  (472) 
25443

>  <target_id>  (472) 
1

>  <reference_id>  (472) 
112

>  <inspiration_ids>  (472) 
[93, 112]

>  <energy_score>  (472) 
252.1222533755769

>  <distance_score>  (472) 
14.847339415785173

>  <path>  (472) 
/opt/xchem-fragalysis-2/maxwin/BulkDock/SCRATCH/511017/C25443-P112/C25443-P112.minimised.mol

>  <scratch_subdir>  (472) 
/opt/xchem-fragalysis-2/maxwin/BulkDock/SCRATCH/511017/C25443-P112

>  <fragmenstein_runtime>  (472) 
16.311384439468384

>  <fragmenstein_outcome>  (472) 
too moved

>  <fragmenstein_mode>  (472) 
expansion

>  <fragmenstein_error>  (472) 


$$$$
C25444-P93
     RDKit          3D

 43 46  0  0  0  0  0  0  0  0999 V2000
    3.2876   -9.3597   10.7844 O   0  0  0  0  0  0  0  0  0  0  0  0
    3.1355  -10.3365   11.5798 C   0  0  0  0  0  0  0  0  0  0  0  0
    1.9264  -11.3967   10.9743 C   0  0  0  0  0  0  0  0  0  0  0  0
    0.4400  -11.7760   11.3815 C   0  0  0  0  0  0  0  0  0  0  0  0
   -0.7556  -11.0702   11.4129 C   0  0  0  0  0  0  0  0  0  0  0  0
   -1.7800  -12.0051   11.7035 C   0  0  0  0  0  0  0  0  0  0  0  0
   -1.3079  -13.2420   11.8155 N   0  0  0  0  0  0  0  0  0  0  0  0
    0.0043  -13.0942   11.5487 N   0  0  0  0  0  0  0  0  0  0  0  0
    4.1034  -10.7990   13.1463 N   0  0  0  0  0  0  0  0  0  0  0  0
    5.1968  -11.6269   13.0181 C   0  0  0  0  0  0  0  0  0  0  0  0
    5.4581  -12.5144   14.0520 C   0  0  0  0  0  0  0  0  0  0  0  0
    4.4808  -12.0442   15.0751 C   0  0  0  0  0  0  0  0  0  0  0  0
    4.2947  -10.7200   14.9684 C   0  0  0  0  0  0  0  0  0  0  0  0
    5.3795   -9.9989   14.0188 C   0  0  0  0  0  0  0  0  0  0  0  0
    7.4232  -10.3548   14.3439 C   0  0  0  0  0  0  0  0  0  0  0  0
    8.2729  -10.2093   15.7082 C   0  0  0  0  0  0  0  0  0  0  0  0
    9.3960   -9.4204   15.4056 C   0  0  0  0  0  0  0  0  0  0  0  0
    9.6817   -7.5800   14.9516 C   0  0  0  0  0  0  0  0  0  0  0  0
   10.7861   -6.6141   15.3122 C   0  0  0  0  0  0  0  0  0  0  0  0
    9.9775   -7.5344   15.6423 C   0  0  0  0  0  0  0  0  0  0  0  0
   10.6776   -9.3710   15.7639 C   0  0  0  0  0  0  0  0  0  0  0  0
   10.1632  -10.5090   15.2557 C   0  0  0  0  0  0  0  0  0  0  0  0
    8.9804  -11.1344   14.4952 N   0  0  0  0  0  0  0  0  0  0  0  0
    1.7101  -10.8864   10.0155 H   0  0  0  0  0  0  0  0  0  0  0  0
    2.4544  -12.2820   10.5943 H   0  0  0  0  0  0  0  0  0  0  0  0
   -0.8692  -10.0088   11.2379 H   0  0  0  0  0  0  0  0  0  0  0  0
   -2.8408  -11.8268   11.8220 H   0  0  0  0  0  0  0  0  0  0  0  0
    0.5554  -13.9415   11.5035 H   0  0  0  0  0  0  0  0  0  0  0  0
    5.9065  -11.0839   12.5373 H   0  0  0  0  0  0  0  0  0  0  0  0
    4.9696  -12.5576   12.5768 H   0  0  0  0  0  0  0  0  0  0  0  0
    5.7911  -13.5320   13.9237 H   0  0  0  0  0  0  0  0  0  0  0  0
    6.4563  -12.3965   13.7417 H   0  0  0  0  0  0  0  0  0  0  0  0
    4.4719  -12.1696   16.1419 H   0  0  0  0  0  0  0  0  0  0  0  0
    3.4741  -12.1939   15.2687 H   0  0  0  0  0  0  0  0  0  0  0  0
    3.3284  -10.3928   14.6179 H   0  0  0  0  0  0  0  0  0  0  0  0
    3.9017  -10.5585   16.0363 H   0  0  0  0  0  0  0  0  0  0  0  0
    5.1782   -8.8991   13.9289 H   0  0  0  0  0  0  0  0  0  0  0  0
    8.2452  -10.8374   16.6123 H   0  0  0  0  0  0  0  0  0  0  0  0
   10.8409   -6.8707   14.3041 H   0  0  0  0  0  0  0  0  0  0  0  0
   10.9287   -5.4846   15.3440 H   0  0  0  0  0  0  0  0  0  0  0  0
   10.7706   -6.6412   16.5179 H   0  0  0  0  0  0  0  0  0  0  0  0
   11.7546   -9.4312   16.0319 H   0  0  0  0  0  0  0  0  0  0  0  0
    8.9234  -12.0970   14.7461 H   0  0  0  0  0  0  0  0  0  0  0  0
  1  2  2  0
  2  3  1  0
  3  4  1  0
  4  5  2  0
  5  6  1  0
  6  7  2  0
  7  8  1  0
  2  9  1  0
  9 10  1  0
 10 11  1  0
 11 12  1  0
 12 13  1  0
 13 14  1  0
 14 15  1  0
 15 16  2  0
 16 17  1  0
 17 18  2  0
 18 19  1  0
 19 20  2  0
 20 21  1  0
 21 22  2  0
 22 23  1  0
  8  4  1  0
 14  9  1  0
 23 15  1  0
 22 17  1  0
  3 24  1  0
  3 25  1  0
  5 26  1  0
  6 27  1  0
  8 28  1  0
 10 29  1  0
 10 30  1  0
 11 31  1  0
 11 32  1  0
 12 33  1  0
 12 34  1  0
 13 35  1  0
 13 36  1  0
 14 37  1  0
 16 38  1  0
 18 39  1  0
 19 40  1  0
 20 41  1  0
 21 42  1  0
 23 43  1  0
M  END
>  <Energy>  (473) 
1768.4766944755063

>  <compound_id>  (473) 
25444

>  <target_id>  (473) 
1

>  <reference_id>  (473) 
93

>  <inspiration_ids>  (473) 
[93, 112]

>  <energy_score>  (473) 
1709.1319136447767

>  <distance_score>  (473) 
13.674051512701592

>  <path>  (473) 
/opt/xchem-fragalysis-2/maxwin/BulkDock/SCRATCH/511017/C25444-P93/C25444-P93.minimised.mol

>  <scratch_subdir>  (473) 
/opt/xchem-fragalysis-2/maxwin/BulkDock/SCRATCH/511017/C25444-P93

>  <fragmenstein_runtime>  (473) 
13.233403205871582

>  <fragmenstein_outcome>  (473) 
too moved

>  <fragmenstein_mode>  (473) 
expansion

>  <fragmenstein_error>  (473) 


$$$$
C25444-P112
     RDKit          3D

 43 46  0  0  0  0  0  0  0  0999 V2000
    7.3090  -19.3393   16.6759 O   0  0  0  0  0  0  0  0  0  0  0  0
    7.4908  -18.7436   15.6467 C   0  0  0  0  0  0  0  0  0  0  0  0
    6.2115  -18.4541   14.7250 C   0  0  0  0  0  0  0  0  0  0  0  0
    4.9617  -19.3865   14.8914 C   0  0  0  0  0  0  0  0  0  0  0  0
    4.7818  -20.6584   15.4190 C   0  0  0  0  0  0  0  0  0  0  0  0
    3.4175  -20.9808   15.2514 C   0  0  0  0  0  0  0  0  0  0  0  0
    2.7548  -20.0131   14.6279 N   0  0  0  0  0  0  0  0  0  0  0  0
    3.6800  -19.0389   14.4587 N   0  0  0  0  0  0  0  0  0  0  0  0
    8.7274  -18.2180   15.0612 N   0  0  0  0  0  0  0  0  0  0  0  0
    9.3443  -19.2458   14.1718 C   0  0  0  0  0  0  0  0  0  0  0  0
   10.1365  -18.7455   12.9628 C   0  0  0  0  0  0  0  0  0  0  0  0
   11.4092  -18.0812   13.4194 C   0  0  0  0  0  0  0  0  0  0  0  0
   11.5801  -18.4722   14.8622 C   0  0  0  0  0  0  0  0  0  0  0  0
   10.2646  -18.1551   15.6700 C   0  0  0  0  0  0  0  0  0  0  0  0
   10.5637  -16.7438   16.3046 C   0  0  0  0  0  0  0  0  0  0  0  0
   11.4067  -16.3435   17.3418 C   0  0  0  0  0  0  0  0  0  0  0  0
   11.3591  -14.9172   17.4680 C   0  0  0  0  0  0  0  0  0  0  0  0
   12.0126  -13.9628   18.2741 C   0  0  0  0  0  0  0  0  0  0  0  0
   11.8862  -12.5792   17.9796 C   0  0  0  0  0  0  0  0  0  0  0  0
   11.0227  -12.1182   17.0043 C   0  0  0  0  0  0  0  0  0  0  0  0
   10.3329  -13.0560   16.2449 C   0  0  0  0  0  0  0  0  0  0  0  0
   10.5437  -14.4472   16.4474 C   0  0  0  0  0  0  0  0  0  0  0  0
    9.9822  -15.5850   15.8661 N   0  0  0  0  0  0  0  0  0  0  0  0
    5.8950  -17.4292   14.9517 H   0  0  0  0  0  0  0  0  0  0  0  0
    6.5151  -18.4963   13.6735 H   0  0  0  0  0  0  0  0  0  0  0  0
    5.5398  -21.2751   15.8802 H   0  0  0  0  0  0  0  0  0  0  0  0
    2.8926  -21.8799   15.5457 H   0  0  0  0  0  0  0  0  0  0  0  0
    3.3616  -18.1722   14.0249 H   0  0  0  0  0  0  0  0  0  0  0  0
    8.4782  -19.7336   13.6945 H   0  0  0  0  0  0  0  0  0  0  0  0
    9.7575  -20.1173   14.7096 H   0  0  0  0  0  0  0  0  0  0  0  0
   10.3844  -19.6066   12.3296 H   0  0  0  0  0  0  0  0  0  0  0  0
    9.5342  -18.0744   12.3446 H   0  0  0  0  0  0  0  0  0  0  0  0
   12.2632  -18.4011   12.8134 H   0  0  0  0  0  0  0  0  0  0  0  0
   11.3449  -16.9938   13.3323 H   0  0  0  0  0  0  0  0  0  0  0  0
   12.4621  -17.9759   15.2852 H   0  0  0  0  0  0  0  0  0  0  0  0
   11.8059  -19.5458   14.9293 H   0  0  0  0  0  0  0  0  0  0  0  0
   10.2235  -18.8337   16.5382 H   0  0  0  0  0  0  0  0  0  0  0  0
   12.0014  -17.0113   17.9533 H   0  0  0  0  0  0  0  0  0  0  0  0
   12.7559  -14.3014   18.9891 H   0  0  0  0  0  0  0  0  0  0  0  0
   12.5138  -11.8771   18.5217 H   0  0  0  0  0  0  0  0  0  0  0  0
   10.8894  -11.0550   16.8335 H   0  0  0  0  0  0  0  0  0  0  0  0
    9.5858  -12.6886   15.5568 H   0  0  0  0  0  0  0  0  0  0  0  0
    9.1279  -15.6186   15.3243 H   0  0  0  0  0  0  0  0  0  0  0  0
  1  2  2  0
  2  3  1  0
  3  4  1  0
  4  5  2  0
  5  6  1  0
  6  7  2  0
  7  8  1  0
  2  9  1  0
  9 10  1  0
 10 11  1  0
 11 12  1  0
 12 13  1  0
 13 14  1  0
 14 15  1  0
 15 16  2  0
 16 17  1  0
 17 18  2  0
 18 19  1  0
 19 20  2  0
 20 21  1  0
 21 22  2  0
 22 23  1  0
  8  4  1  0
 14  9  1  0
 23 15  1  0
 22 17  1  0
  3 24  1  0
  3 25  1  0
  5 26  1  0
  6 27  1  0
  8 28  1  0
 10 29  1  0
 10 30  1  0
 11 31  1  0
 11 32  1  0
 12 33  1  0
 12 34  1  0
 13 35  1  0
 13 36  1  0
 14 37  1  0
 16 38  1  0
 18 39  1  0
 19 40  1  0
 20 41  1  0
 21 42  1  0
 23 43  1  0
M  END
>  <Energy>  (474) 
126.20386777103464

>  <compound_id>  (474) 
25444

>  <target_id>  (474) 
1

>  <reference_id>  (474) 
112

>  <inspiration_ids>  (474) 
[93, 112]

>  <energy_score>  (474) 
66.85908694030377

>  <distance_score>  (474) 
15.069626447120918

>  <path>  (474) 
/opt/xchem-fragalysis-2/maxwin/BulkDock/SCRATCH/511017/C25444-P112/C25444-P112.minimised.mol

>  <scratch_subdir>  (474) 
/opt/xchem-fragalysis-2/maxwin/BulkDock/SCRATCH/511017/C25444-P112

>  <fragmenstein_runtime>  (474) 
21.25803017616272

>  <fragmenstein_outcome>  (474) 
too moved

>  <fragmenstein_mode>  (474) 
expansion

>  <fragmenstein_error>  (474) 


$$$$
C25446-P93
     RDKit          3D

 30 32  0  0  0  0  0  0  0  0999 V2000
   10.9881  -17.4168   17.0743 O   0  0  0  0  0  0  0  0  0  0  0  0
   10.4986  -17.0305   16.0463 C   0  0  0  0  0  0  0  0  0  0  0  0
    9.3738  -17.5761   15.2492 N   0  0  0  0  0  0  0  0  0  0  0  0
    8.5735  -18.8166   15.4208 C   0  0  0  0  0  0  0  0  0  0  0  0
    7.1787  -19.0444   14.7863 C   0  0  0  0  0  0  0  0  0  0  0  0
    6.0088  -18.3142   14.6076 C   0  0  0  0  0  0  0  0  0  0  0  0
    5.0001  -19.2184   14.1893 C   0  0  0  0  0  0  0  0  0  0  0  0
    5.4795  -20.4539   14.0806 N   0  0  0  0  0  0  0  0  0  0  0  0
    6.7772  -20.3258   14.4206 N   0  0  0  0  0  0  0  0  0  0  0  0
   11.2841  -15.8357   15.4721 C   0  0  0  0  0  0  0  0  0  0  0  0
   11.9404  -15.9822   14.2341 C   0  0  0  0  0  0  0  0  0  0  0  0
   12.7576  -14.9773   13.6815 C   0  0  0  0  0  0  0  0  0  0  0  0
   12.9598  -13.7614   14.3361 C   0  0  0  0  0  0  0  0  0  0  0  0
   12.3979  -13.5866   15.6091 C   0  0  0  0  0  0  0  0  0  0  0  0
   12.4915  -12.5145   16.5409 C   0  0  0  0  0  0  0  0  0  0  0  0
   11.8310  -12.9109   17.6742 C   0  0  0  0  0  0  0  0  0  0  0  0
   11.3447  -14.1814   17.4561 N   0  0  0  0  0  0  0  0  0  0  0  0
   11.6153  -14.6193   16.1711 C   0  0  0  0  0  0  0  0  0  0  0  0
    9.1768  -16.9512   14.4852 H   0  0  0  0  0  0  0  0  0  0  0  0
    8.4844  -18.9872   16.4994 H   0  0  0  0  0  0  0  0  0  0  0  0
    9.2338  -19.6115   15.0508 H   0  0  0  0  0  0  0  0  0  0  0  0
    5.8479  -17.2788   14.8615 H   0  0  0  0  0  0  0  0  0  0  0  0
    3.9509  -19.0251   13.9960 H   0  0  0  0  0  0  0  0  0  0  0  0
    7.3424  -21.1684   14.4270 H   0  0  0  0  0  0  0  0  0  0  0  0
   11.8307  -16.9180   13.6876 H   0  0  0  0  0  0  0  0  0  0  0  0
   13.2344  -15.1473   12.7181 H   0  0  0  0  0  0  0  0  0  0  0  0
   13.5827  -12.9891   13.8940 H   0  0  0  0  0  0  0  0  0  0  0  0
   13.0373  -11.5927   16.3887 H   0  0  0  0  0  0  0  0  0  0  0  0
   11.6883  -12.4285   18.6313 H   0  0  0  0  0  0  0  0  0  0  0  0
   10.8827  -14.7483   18.1538 H   0  0  0  0  0  0  0  0  0  0  0  0
  1  2  2  0
  2  3  1  0
  3  4  1  0
  4  5  1  0
  5  6  2  0
  6  7  1  0
  7  8  2  0
  8  9  1  0
  2 10  1  0
 10 11  2  0
 11 12  1  0
 12 13  2  0
 13 14  1  0
 14 15  1  0
 15 16  2  0
 16 17  1  0
 17 18  1  0
  9  5  1  0
 18 10  1  0
 18 14  2  0
  3 19  1  0
  4 20  1  0
  4 21  1  0
  6 22  1  0
  7 23  1  0
  9 24  1  0
 11 25  1  0
 12 26  1  0
 13 27  1  0
 15 28  1  0
 16 29  1  0
 17 30  1  0
M  END
>  <Energy>  (475) 
28.729927933559274

>  <compound_id>  (475) 
25446

>  <target_id>  (475) 
1

>  <reference_id>  (475) 
93

>  <inspiration_ids>  (475) 
[93, 112]

>  <energy_score>  (475) 
16.663806275095084

>  <distance_score>  (475) 
16.065339934855082

>  <path>  (475) 
/opt/xchem-fragalysis-2/maxwin/BulkDock/SCRATCH/511017/C25446-P93/C25446-P93.minimised.mol

>  <scratch_subdir>  (475) 
/opt/xchem-fragalysis-2/maxwin/BulkDock/SCRATCH/511017/C25446-P93

>  <fragmenstein_runtime>  (475) 
9.82540225982666

>  <fragmenstein_outcome>  (475) 
too moved

>  <fragmenstein_mode>  (475) 
expansion

>  <fragmenstein_error>  (475) 


$$$$
C25446-P112
     RDKit          3D

 30 32  0  0  0  0  0  0  0  0999 V2000
    4.1022   -8.9310   13.7365 O   0  0  0  0  0  0  0  0  0  0  0  0
    4.2705   -7.9380   13.0663 C   0  0  0  0  0  0  0  0  0  0  0  0
    3.3554   -7.3191   11.6643 N   0  0  0  0  0  0  0  0  0  0  0  0
    2.0943   -7.9804   10.8112 C   0  0  0  0  0  0  0  0  0  0  0  0
    1.5247   -9.4333   10.5525 C   0  0  0  0  0  0  0  0  0  0  0  0
    2.0012  -10.6495   10.0902 C   0  0  0  0  0  0  0  0  0  0  0  0
    0.8994  -11.5505   10.1071 C   0  0  0  0  0  0  0  0  0  0  0  0
   -0.2235  -10.9662   10.5226 N   0  0  0  0  0  0  0  0  0  0  0  0
    0.1720   -9.7008   10.7708 N   0  0  0  0  0  0  0  0  0  0  0  0
    5.6069   -7.1856   13.4725 C   0  0  0  0  0  0  0  0  0  0  0  0
    5.7885   -6.3334   12.1453 C   0  0  0  0  0  0  0  0  0  0  0  0
    6.8769   -6.6761   11.4964 C   0  0  0  0  0  0  0  0  0  0  0  0
    7.9900   -6.8960   12.1713 C   0  0  0  0  0  0  0  0  0  0  0  0
    8.2269   -6.8078   13.8507 C   0  0  0  0  0  0  0  0  0  0  0  0
    9.6897   -6.9233   15.0237 C   0  0  0  0  0  0  0  0  0  0  0  0
    9.5451   -8.1274   15.3570 C   0  0  0  0  0  0  0  0  0  0  0  0
    8.2915   -6.7297   14.8601 N   0  0  0  0  0  0  0  0  0  0  0  0
    6.8061   -7.4509   14.4571 C   0  0  0  0  0  0  0  0  0  0  0  0
    3.6991   -6.4321   11.3855 H   0  0  0  0  0  0  0  0  0  0  0  0
    2.4238   -7.6931    9.7999 H   0  0  0  0  0  0  0  0  0  0  0  0
    1.2554   -7.2915   10.9960 H   0  0  0  0  0  0  0  0  0  0  0  0
    3.0188  -10.8694    9.8032 H   0  0  0  0  0  0  0  0  0  0  0  0
    0.8846  -12.5975    9.8337 H   0  0  0  0  0  0  0  0  0  0  0  0
   -0.5190   -9.0516   11.1260 H   0  0  0  0  0  0  0  0  0  0  0  0
    5.0761   -5.7066   11.6290 H   0  0  0  0  0  0  0  0  0  0  0  0
    6.9216   -7.6012   12.1035 H   0  0  0  0  0  0  0  0  0  0  0  0
    8.7403   -7.2834   11.4445 H   0  0  0  0  0  0  0  0  0  0  0  0
   10.5485   -6.1370   15.1860 H   0  0  0  0  0  0  0  0  0  0  0  0
    9.0755   -9.1380   15.4448 H   0  0  0  0  0  0  0  0  0  0  0  0
    8.0148   -6.0822   15.6122 H   0  0  0  0  0  0  0  0  0  0  0  0
  1  2  2  0
  2  3  1  0
  3  4  1  0
  4  5  1  0
  5  6  2  0
  6  7  1  0
  7  8  2  0
  8  9  1  0
  2 10  1  0
 10 11  2  0
 11 12  1  0
 12 13  2  0
 13 14  1  0
 14 15  1  0
 15 16  2  0
 16 17  1  0
 17 18  1  0
  9  5  1  0
 18 10  1  0
 18 14  2  0
  3 19  1  0
  4 20  1  0
  4 21  1  0
  6 22  1  0
  7 23  1  0
  9 24  1  0
 11 25  1  0
 12 26  1  0
 13 27  1  0
 15 28  1  0
 16 29  1  0
 17 30  1  0
M  END
>  <Energy>  (476) 
743.10631286124135

>  <compound_id>  (476) 
25446

>  <target_id>  (476) 
1

>  <reference_id>  (476) 
112

>  <inspiration_ids>  (476) 
[93, 112]

>  <energy_score>  (476) 
731.0401912027713

>  <distance_score>  (476) 
15.226415040538978

>  <path>  (476) 
/opt/xchem-fragalysis-2/maxwin/BulkDock/SCRATCH/511017/C25446-P112/C25446-P112.minimised.mol

>  <scratch_subdir>  (476) 
/opt/xchem-fragalysis-2/maxwin/BulkDock/SCRATCH/511017/C25446-P112

>  <fragmenstein_runtime>  (476) 
6.10309362411499

>  <fragmenstein_outcome>  (476) 
too moved

>  <fragmenstein_mode>  (476) 
expansion

>  <fragmenstein_error>  (476) 


$$$$
C25447-P93
     RDKit          3D

 37 39  0  0  0  0  0  0  0  0999 V2000
    7.0061   -5.2612   19.7071 C   0  0  0  0  0  0  0  0  0  0  0  0
    7.5891   -6.4602   18.7626 C   0  0  0  0  0  0  0  0  0  0  0  0
    9.6606   -6.2237   18.7360 C   0  0  0  0  0  0  0  0  0  0  0  0
   10.6879   -6.3262   16.9599 C   0  0  0  0  0  0  0  0  0  0  0  0
    9.6097   -7.2479   15.5499 C   0  0  0  0  0  0  0  0  0  0  0  0
    7.7235   -6.6165   15.6332 C   0  0  0  0  0  0  0  0  0  0  0  0
    6.3613   -7.1674   15.1395 C   0  0  0  0  0  0  0  0  0  0  0  0
    5.3100   -8.2077   13.7527 C   0  0  0  0  0  0  0  0  0  0  0  0
    4.2366   -9.9679   13.4509 C   0  0  0  0  0  0  0  0  0  0  0  0
    3.1091  -10.5678   11.8223 N   0  0  0  0  0  0  0  0  0  0  0  0
    1.2822  -11.2459   11.0726 S   0  0  0  0  0  0  0  0  0  0  0  0
    1.6471  -11.3902    9.6693 O   0  0  0  0  0  0  0  0  0  0  0  0
    0.1765  -10.3612   11.3888 O   0  0  0  0  0  0  0  0  0  0  0  0
    0.3650  -12.8839   11.3140 C   0  0  0  0  0  0  0  0  0  0  0  0
    0.0469  -13.9191   10.4293 C   0  0  0  0  0  0  0  0  0  0  0  0
   -0.8432  -14.7789   11.1067 C   0  0  0  0  0  0  0  0  0  0  0  0
   -1.1238  -14.3315   12.3282 N   0  0  0  0  0  0  0  0  0  0  0  0
   -0.3927  -13.1918   12.4291 N   0  0  0  0  0  0  0  0  0  0  0  0
    5.3878   -6.4259   16.1686 C   0  0  0  0  0  0  0  0  0  0  0  0
    5.7194   -6.0038   17.2990 N   0  0  0  0  0  0  0  0  0  0  0  0
    6.9652   -6.3444   17.2638 C   0  0  0  0  0  0  0  0  0  0  0  0
    7.7594   -4.5510   20.0399 H   0  0  0  0  0  0  0  0  0  0  0  0
    6.9856   -5.7975   20.6189 H   0  0  0  0  0  0  0  0  0  0  0  0
    6.1249   -4.7764   19.3350 H   0  0  0  0  0  0  0  0  0  0  0  0
   10.0904   -5.6699   19.5856 H   0  0  0  0  0  0  0  0  0  0  0  0
   11.4163   -5.5347   16.6711 H   0  0  0  0  0  0  0  0  0  0  0  0
    9.7003   -8.3591   15.4180 H   0  0  0  0  0  0  0  0  0  0  0  0
    5.9636   -7.7719   12.9721 H   0  0  0  0  0  0  0  0  0  0  0  0
    4.3771   -7.6539   13.6850 H   0  0  0  0  0  0  0  0  0  0  0  0
    3.6714  -10.3902   14.2741 H   0  0  0  0  0  0  0  0  0  0  0  0
    5.0183  -10.7641   13.4631 H   0  0  0  0  0  0  0  0  0  0  0  0
    2.8716   -9.5988   11.5355 H   0  0  0  0  0  0  0  0  0  0  0  0
    0.4065  -14.0025    9.4127 H   0  0  0  0  0  0  0  0  0  0  0  0
   -1.3056  -15.6920   10.7533 H   0  0  0  0  0  0  0  0  0  0  0  0
   -0.4380  -12.6908   13.3090 H   0  0  0  0  0  0  0  0  0  0  0  0
    4.3121   -6.3749   16.0043 H   0  0  0  0  0  0  0  0  0  0  0  0
    5.1304   -5.7810   18.0843 H   0  0  0  0  0  0  0  0  0  0  0  0
  1  2  1  0
  2  3  2  0
  3  4  1  0
  4  5  2  0
  5  6  1  0
  6  7  1  0
  7  8  1  0
  8  9  1  0
  9 10  1  0
 10 11  1  0
 11 12  2  0
 11 13  2  0
 11 14  1  0
 14 15  2  0
 15 16  1  0
 16 17  2  0
 17 18  1  0
  7 19  2  0
 19 20  1  0
 20 21  1  0
 21  2  1  0
 21  6  2  0
 18 14  1  0
  1 22  1  0
  1 23  1  0
  1 24  1  0
  3 25  1  0
  4 26  1  0
  5 27  1  0
  8 28  1  0
  8 29  1  0
  9 30  1  0
  9 31  1  0
 10 32  1  0
 15 33  1  0
 16 34  1  0
 18 35  1  0
 19 36  1  0
 20 37  1  0
M  END
>  <Energy>  (477) 
1052.6874780015473

>  <compound_id>  (477) 
25447

>  <target_id>  (477) 
1

>  <reference_id>  (477) 
93

>  <inspiration_ids>  (477) 
[93, 112]

>  <energy_score>  (477) 
1077.3485843292947

>  <distance_score>  (477) 
13.186482644564004

>  <path>  (477) 
/opt/xchem-fragalysis-2/maxwin/BulkDock/SCRATCH/511017/C25447-P93/C25447-P93.minimised.mol

>  <scratch_subdir>  (477) 
/opt/xchem-fragalysis-2/maxwin/BulkDock/SCRATCH/511017/C25447-P93

>  <fragmenstein_runtime>  (477) 
14.52695345878601

>  <fragmenstein_outcome>  (477) 
too moved

>  <fragmenstein_mode>  (477) 
expansion

>  <fragmenstein_error>  (477) 


$$$$
C25447-P112
     RDKit          3D

 37 39  0  0  0  0  0  0  0  0999 V2000
   13.0070   -5.6014   15.2074 C   0  0  0  0  0  0  0  0  0  0  0  0
   11.1740   -5.6682   14.7088 C   0  0  0  0  0  0  0  0  0  0  0  0
   11.1115   -4.4283   15.1725 C   0  0  0  0  0  0  0  0  0  0  0  0
   11.0467   -5.2611   16.1739 C   0  0  0  0  0  0  0  0  0  0  0  0
   10.1248   -6.8576   15.7299 C   0  0  0  0  0  0  0  0  0  0  0  0
    9.4416   -8.5736   15.5444 C   0  0  0  0  0  0  0  0  0  0  0  0
    8.0018   -9.8923   15.0123 C   0  0  0  0  0  0  0  0  0  0  0  0
    5.9941  -10.5458   14.2940 C   0  0  0  0  0  0  0  0  0  0  0  0
    3.9988  -11.2690   14.8754 C   0  0  0  0  0  0  0  0  0  0  0  0
    2.0153  -12.3299   14.6014 N   0  0  0  0  0  0  0  0  0  0  0  0
    0.4183  -12.3975   12.9047 S   0  0  0  0  0  0  0  0  0  0  0  0
    0.7818  -11.6248   11.7125 O   0  0  0  0  0  0  0  0  0  0  0  0
   -0.9463  -12.0271   13.3132 O   0  0  0  0  0  0  0  0  0  0  0  0
   -0.2279  -13.9746   12.1132 C   0  0  0  0  0  0  0  0  0  0  0  0
    0.0650  -14.8543   11.0787 C   0  0  0  0  0  0  0  0  0  0  0  0
   -1.0373  -15.7469   10.9775 C   0  0  0  0  0  0  0  0  0  0  0  0
   -2.0305  -15.4183   11.8025 N   0  0  0  0  0  0  0  0  0  0  0  0
   -1.5600  -14.2962   12.3896 N   0  0  0  0  0  0  0  0  0  0  0  0
    9.3383  -10.3514   15.2998 C   0  0  0  0  0  0  0  0  0  0  0  0
   10.3777   -9.0454   15.2901 N   0  0  0  0  0  0  0  0  0  0  0  0
    9.8731   -7.2418   14.9017 C   0  0  0  0  0  0  0  0  0  0  0  0
   13.4424   -6.5815   15.2454 H   0  0  0  0  0  0  0  0  0  0  0  0
   13.1653   -5.1832   16.2193 H   0  0  0  0  0  0  0  0  0  0  0  0
   13.5014   -4.8464   14.5855 H   0  0  0  0  0  0  0  0  0  0  0  0
   10.4002   -3.6269   15.1076 H   0  0  0  0  0  0  0  0  0  0  0  0
   11.1403   -4.9221   17.2082 H   0  0  0  0  0  0  0  0  0  0  0  0
   11.5592   -6.8139   16.2100 H   0  0  0  0  0  0  0  0  0  0  0  0
    6.2008  -11.1987   13.4520 H   0  0  0  0  0  0  0  0  0  0  0  0
    5.5095   -9.6414   13.9822 H   0  0  0  0  0  0  0  0  0  0  0  0
    3.6201  -10.3887   14.3258 H   0  0  0  0  0  0  0  0  0  0  0  0
    3.8445  -11.0728   15.9408 H   0  0  0  0  0  0  0  0  0  0  0  0
    1.9381  -13.1673   15.2136 H   0  0  0  0  0  0  0  0  0  0  0  0
    0.9506  -14.8589   10.4639 H   0  0  0  0  0  0  0  0  0  0  0  0
   -1.1553  -16.5952   10.3148 H   0  0  0  0  0  0  0  0  0  0  0  0
   -2.1535  -13.7652   13.0196 H   0  0  0  0  0  0  0  0  0  0  0  0
    9.8758  -11.2778   15.4430 H   0  0  0  0  0  0  0  0  0  0  0  0
   11.3304   -9.2081   15.6585 H   0  0  0  0  0  0  0  0  0  0  0  0
  1  2  1  0
  2  3  2  0
  3  4  1  0
  4  5  2  0
  5  6  1  0
  6  7  1  0
  7  8  1  0
  8  9  1  0
  9 10  1  0
 10 11  1  0
 11 12  2  0
 11 13  2  0
 11 14  1  0
 14 15  2  0
 15 16  1  0
 16 17  2  0
 17 18  1  0
  7 19  2  0
 19 20  1  0
 20 21  1  0
 21  2  1  0
 21  6  2  0
 18 14  1  0
  1 22  1  0
  1 23  1  0
  1 24  1  0
  3 25  1  0
  4 26  1  0
  5 27  1  0
  8 28  1  0
  8 29  1  0
  9 30  1  0
  9 31  1  0
 10 32  1  0
 15 33  1  0
 16 34  1  0
 18 35  1  0
 19 36  1  0
 20 37  1  0
M  END
>  <Energy>  (478) 
1992.9315077487568

>  <compound_id>  (478) 
25447

>  <target_id>  (478) 
1

>  <reference_id>  (478) 
112

>  <inspiration_ids>  (478) 
[93, 112]

>  <energy_score>  (478) 
2017.5926140764964

>  <distance_score>  (478) 
11.96090536727705

>  <path>  (478) 
/opt/xchem-fragalysis-2/maxwin/BulkDock/SCRATCH/511017/C25447-P112/C25447-P112.minimised.mol

>  <scratch_subdir>  (478) 
/opt/xchem-fragalysis-2/maxwin/BulkDock/SCRATCH/511017/C25447-P112

>  <fragmenstein_runtime>  (478) 
9.440885066986084

>  <fragmenstein_outcome>  (478) 
too moved

>  <fragmenstein_mode>  (478) 
expansion

>  <fragmenstein_error>  (478) 


$$$$
C25449-P93
     RDKit          3D

 39 42  0  0  0  0  0  0  0  0999 V2000
   -0.2006   -6.7017   16.3509 C   0  0  0  0  0  0  0  0  0  0  0  0
   -1.1851   -7.5968   16.8033 C   0  0  0  0  0  0  0  0  0  0  0  0
   -1.1232   -8.3129   18.0353 C   0  0  0  0  0  0  0  0  0  0  0  0
   -2.4599   -9.1451   18.4414 C   0  0  0  0  0  0  0  0  0  0  0  0
   -2.6189  -10.6760   18.1990 N   0  0  0  0  0  0  0  0  0  0  0  0
   -2.4619  -11.3468   19.5310 C   0  0  0  0  0  0  0  0  0  0  0  0
   -3.7564  -11.5976   20.3334 C   0  0  0  0  0  0  0  0  0  0  0  0
   -4.7397  -10.6071   20.0357 O   0  0  0  0  0  0  0  0  0  0  0  0
   -5.1549  -10.6904   18.6618 C   0  0  0  0  0  0  0  0  0  0  0  0
   -4.0132  -11.1139   17.6808 C   0  0  0  0  0  0  0  0  0  0  0  0
   -4.2048  -12.6306   17.3003 C   0  0  0  0  0  0  0  0  0  0  0  0
   -3.3980  -13.7601   17.3148 C   0  0  0  0  0  0  0  0  0  0  0  0
   -4.2065  -14.8361   16.8800 C   0  0  0  0  0  0  0  0  0  0  0  0
   -5.4439  -14.4403   16.5851 N   0  0  0  0  0  0  0  0  0  0  0  0
   -5.4112  -13.1138   16.8083 N   0  0  0  0  0  0  0  0  0  0  0  0
    0.0954   -8.0110   18.7632 C   0  0  0  0  0  0  0  0  0  0  0  0
    0.5358   -8.3898   20.0221 N   0  0  0  0  0  0  0  0  0  0  0  0
    1.8006   -7.9112   20.2942 C   0  0  0  0  0  0  0  0  0  0  0  0
    2.1956   -7.1360   19.2369 C   0  0  0  0  0  0  0  0  0  0  0  0
    1.1283   -7.1600   18.2899 C   0  0  0  0  0  0  0  0  0  0  0  0
    0.9662   -6.4832   17.0748 C   0  0  0  0  0  0  0  0  0  0  0  0
   -0.3599   -6.1677   15.4164 H   0  0  0  0  0  0  0  0  0  0  0  0
   -2.0734   -7.7093   16.1795 H   0  0  0  0  0  0  0  0  0  0  0  0
   -3.2676   -8.6587   17.8785 H   0  0  0  0  0  0  0  0  0  0  0  0
   -2.6632   -8.8927   19.4904 H   0  0  0  0  0  0  0  0  0  0  0  0
   -1.9562  -12.3088   19.3917 H   0  0  0  0  0  0  0  0  0  0  0  0
   -1.7841  -10.7661   20.1690 H   0  0  0  0  0  0  0  0  0  0  0  0
   -3.5406  -11.5451   21.4056 H   0  0  0  0  0  0  0  0  0  0  0  0
   -4.1717  -12.5925   20.1367 H   0  0  0  0  0  0  0  0  0  0  0  0
   -6.0295  -11.3469   18.6211 H   0  0  0  0  0  0  0  0  0  0  0  0
   -5.5005   -9.6850   18.3961 H   0  0  0  0  0  0  0  0  0  0  0  0
   -4.1758  -10.5833   16.7323 H   0  0  0  0  0  0  0  0  0  0  0  0
   -2.3543  -13.8066   17.5987 H   0  0  0  0  0  0  0  0  0  0  0  0
   -3.9351  -15.8783   16.7651 H   0  0  0  0  0  0  0  0  0  0  0  0
   -6.2603  -12.5911   16.6228 H   0  0  0  0  0  0  0  0  0  0  0  0
   -0.0003   -8.9778   20.6444 H   0  0  0  0  0  0  0  0  0  0  0  0
    2.2797   -8.1448   21.2353 H   0  0  0  0  0  0  0  0  0  0  0  0
    3.1185   -6.5769   19.1586 H   0  0  0  0  0  0  0  0  0  0  0  0
    1.7227   -5.7940   16.7123 H   0  0  0  0  0  0  0  0  0  0  0  0
  1  2  2  0
  2  3  1  0
  3  4  1  0
  4  5  1  0
  5  6  1  0
  6  7  1  0
  7  8  1  0
  8  9  1  0
  9 10  1  0
 10 11  1  0
 11 12  2  0
 12 13  1  0
 13 14  2  0
 14 15  1  0
  3 16  2  0
 16 17  1  0
 17 18  1  0
 18 19  2  0
 19 20  1  0
 20 21  2  0
 21  1  1  0
 10  5  1  0
 15 11  1  0
 20 16  1  0
  1 22  1  0
  2 23  1  0
  4 24  1  0
  4 25  1  0
  6 26  1  0
  6 27  1  0
  7 28  1  0
  7 29  1  0
  9 30  1  0
  9 31  1  0
 10 32  1  0
 12 33  1  0
 13 34  1  0
 15 35  1  0
 17 36  1  0
 18 37  1  0
 19 38  1  0
 21 39  1  0
M  END
>  <Energy>  (479) 
119.27208934149309

>  <compound_id>  (479) 
25449

>  <target_id>  (479) 
1

>  <reference_id>  (479) 
93

>  <inspiration_ids>  (479) 
[93, 112]

>  <energy_score>  (479) 
-11.614365433048363

>  <distance_score>  (479) 
14.61926271347299

>  <path>  (479) 
/opt/xchem-fragalysis-2/maxwin/BulkDock/SCRATCH/511017/C25449-P93/C25449-P93.minimised.mol

>  <scratch_subdir>  (479) 
/opt/xchem-fragalysis-2/maxwin/BulkDock/SCRATCH/511017/C25449-P93

>  <fragmenstein_runtime>  (479) 
20.064552545547485

>  <fragmenstein_outcome>  (479) 
too moved

>  <fragmenstein_mode>  (479) 
expansion

>  <fragmenstein_error>  (479) 


$$$$
C25449-P112
     RDKit          3D

 39 42  0  0  0  0  0  0  0  0999 V2000
    0.9041   -7.8123   19.0510 C   0  0  0  0  0  0  0  0  0  0  0  0
   -0.3126   -8.1986   18.4491 C   0  0  0  0  0  0  0  0  0  0  0  0
   -0.8611   -7.6043   17.2900 C   0  0  0  0  0  0  0  0  0  0  0  0
   -2.2268   -8.1568   16.6080 C   0  0  0  0  0  0  0  0  0  0  0  0
   -3.0123   -9.4171   17.1574 N   0  0  0  0  0  0  0  0  0  0  0  0
   -3.6477   -9.0175   18.4470 C   0  0  0  0  0  0  0  0  0  0  0  0
   -4.7029   -7.8944   18.3352 C   0  0  0  0  0  0  0  0  0  0  0  0
   -5.3198   -7.8227   17.0419 O   0  0  0  0  0  0  0  0  0  0  0  0
   -5.5570   -9.1282   16.5141 C   0  0  0  0  0  0  0  0  0  0  0  0
   -4.2225   -9.8962   16.2593 C   0  0  0  0  0  0  0  0  0  0  0  0
   -4.5895  -11.4223   16.3442 C   0  0  0  0  0  0  0  0  0  0  0  0
   -4.3240  -12.4431   17.2464 C   0  0  0  0  0  0  0  0  0  0  0  0
   -4.9982  -13.5879   16.7619 C   0  0  0  0  0  0  0  0  0  0  0  0
   -5.6620  -13.3334   15.6351 N   0  0  0  0  0  0  0  0  0  0  0  0
   -5.3951  -12.0349   15.3937 N   0  0  0  0  0  0  0  0  0  0  0  0
   -0.0355   -6.4960   16.8403 C   0  0  0  0  0  0  0  0  0  0  0  0
   -0.2236   -5.5745   15.8208 N   0  0  0  0  0  0  0  0  0  0  0  0
    0.8224   -4.6817   15.7322 C   0  0  0  0  0  0  0  0  0  0  0  0
    1.7372   -4.9993   16.6995 C   0  0  0  0  0  0  0  0  0  0  0  0
    1.2017   -6.1088   17.4169 C   0  0  0  0  0  0  0  0  0  0  0  0
    1.6909   -6.7957   18.5299 C   0  0  0  0  0  0  0  0  0  0  0  0
    1.2362   -8.3338   19.9465 H   0  0  0  0  0  0  0  0  0  0  0  0
   -0.8338   -9.0381   18.9059 H   0  0  0  0  0  0  0  0  0  0  0  0
   -2.9002   -7.2986   16.5219 H   0  0  0  0  0  0  0  0  0  0  0  0
   -1.9245   -8.4282   15.5903 H   0  0  0  0  0  0  0  0  0  0  0  0
   -2.9109   -8.7363   19.2033 H   0  0  0  0  0  0  0  0  0  0  0  0
   -4.1335   -9.9057   18.8718 H   0  0  0  0  0  0  0  0  0  0  0  0
   -4.2385   -6.9199   18.5190 H   0  0  0  0  0  0  0  0  0  0  0  0
   -5.4858   -8.0340   19.0890 H   0  0  0  0  0  0  0  0  0  0  0  0
   -6.0993   -9.0095   15.5694 H   0  0  0  0  0  0  0  0  0  0  0  0
   -6.2215   -9.6612   17.2066 H   0  0  0  0  0  0  0  0  0  0  0  0
   -3.9097   -9.7104   15.2229 H   0  0  0  0  0  0  0  0  0  0  0  0
   -3.7138  -12.3710   18.1366 H   0  0  0  0  0  0  0  0  0  0  0  0
   -5.0288  -14.5836   17.1862 H   0  0  0  0  0  0  0  0  0  0  0  0
   -5.8016  -11.6189   14.5616 H   0  0  0  0  0  0  0  0  0  0  0  0
   -1.0393   -5.5522   15.2254 H   0  0  0  0  0  0  0  0  0  0  0  0
    0.8139   -3.9008   14.9832 H   0  0  0  0  0  0  0  0  0  0  0  0
    2.6682   -4.4834   16.8957 H   0  0  0  0  0  0  0  0  0  0  0  0
    2.6264   -6.5128   19.0005 H   0  0  0  0  0  0  0  0  0  0  0  0
  1  2  2  0
  2  3  1  0
  3  4  1  0
  4  5  1  0
  5  6  1  0
  6  7  1  0
  7  8  1  0
  8  9  1  0
  9 10  1  0
 10 11  1  0
 11 12  2  0
 12 13  1  0
 13 14  2  0
 14 15  1  0
  3 16  2  0
 16 17  1  0
 17 18  1  0
 18 19  2  0
 19 20  1  0
 20 21  2  0
 21  1  1  0
 10  5  1  0
 15 11  1  0
 20 16  1  0
  1 22  1  0
  2 23  1  0
  4 24  1  0
  4 25  1  0
  6 26  1  0
  6 27  1  0
  7 28  1  0
  7 29  1  0
  9 30  1  0
  9 31  1  0
 10 32  1  0
 12 33  1  0
 13 34  1  0
 15 35  1  0
 17 36  1  0
 18 37  1  0
 19 38  1  0
 21 39  1  0
M  END
>  <Energy>  (480) 
115.45741757574164

>  <compound_id>  (480) 
25449

>  <target_id>  (480) 
1

>  <reference_id>  (480) 
112

>  <inspiration_ids>  (480) 
[93, 112]

>  <energy_score>  (480) 
-15.429037198798511

>  <distance_score>  (480) 
14.80064115406575

>  <path>  (480) 
/opt/xchem-fragalysis-2/maxwin/BulkDock/SCRATCH/511017/C25449-P112/C25449-P112.minimised.mol

>  <scratch_subdir>  (480) 
/opt/xchem-fragalysis-2/maxwin/BulkDock/SCRATCH/511017/C25449-P112

>  <fragmenstein_runtime>  (480) 
17.970284461975098

>  <fragmenstein_outcome>  (480) 
too moved

>  <fragmenstein_mode>  (480) 
expansion

>  <fragmenstein_error>  (480) 


$$$$
C25451-P93
     RDKit          3D

 42 44  0  0  0  0  0  0  0  0999 V2000
    5.4645  -16.1502   14.9050 O   0  0  0  0  0  0  0  0  0  0  0  0
    5.3801  -15.5108   13.7707 C   0  0  0  0  0  0  0  0  0  0  0  0
    6.2396  -13.6432   13.6769 C   0  0  0  0  0  0  0  0  0  0  0  0
    6.4925  -11.7033   13.7100 C   0  0  0  0  0  0  0  0  0  0  0  0
    8.2738  -10.7981   14.5193 C   0  0  0  0  0  0  0  0  0  0  0  0
    9.5014  -11.3928   14.5780 C   0  0  0  0  0  0  0  0  0  0  0  0
   10.1647  -11.3729   15.8285 N   0  0  0  0  0  0  0  0  0  0  0  0
   10.6517  -10.0990   15.8111 C   0  0  0  0  0  0  0  0  0  0  0  0
   11.9706   -9.3433   15.8888 C   0  0  0  0  0  0  0  0  0  0  0  0
   12.3071   -7.5648   15.9589 C   0  0  0  0  0  0  0  0  0  0  0  0
   11.1797   -6.6731   15.7354 C   0  0  0  0  0  0  0  0  0  0  0  0
    9.7346   -7.7203   15.2998 C   0  0  0  0  0  0  0  0  0  0  0  0
    9.4289   -9.5185   15.4230 C   0  0  0  0  0  0  0  0  0  0  0  0
    4.7719  -16.3377   12.7946 O   0  0  0  0  0  0  0  0  0  0  0  0
    4.4497  -17.8201   13.1541 C   0  0  0  0  0  0  0  0  0  0  0  0
    3.5818  -18.4963   12.0632 C   0  0  0  0  0  0  0  0  0  0  0  0
    2.3090  -19.0683   12.4837 N   0  0  0  0  0  0  0  0  0  0  0  0
    1.5125  -20.1233   11.9113 C   0  0  0  0  0  0  0  0  0  0  0  0
    1.7326  -20.8520   10.9896 O   0  0  0  0  0  0  0  0  0  0  0  0
    0.2121  -20.3246   12.5852 C   0  0  0  0  0  0  0  0  0  0  0  0
   -0.9377  -20.9220   12.0731 C   0  0  0  0  0  0  0  0  0  0  0  0
   -1.9064  -20.8599   13.0909 C   0  0  0  0  0  0  0  0  0  0  0  0
   -1.4225  -20.3060   14.2046 N   0  0  0  0  0  0  0  0  0  0  0  0
   -0.1362  -20.0350   13.8805 N   0  0  0  0  0  0  0  0  0  0  0  0
    5.3517  -13.1393   14.0751 H   0  0  0  0  0  0  0  0  0  0  0  0
    7.0200  -13.8121   14.4295 H   0  0  0  0  0  0  0  0  0  0  0  0
    6.7356  -12.1740   12.8051 H   0  0  0  0  0  0  0  0  0  0  0  0
    5.5804  -11.0933   13.7852 H   0  0  0  0  0  0  0  0  0  0  0  0
   10.1384  -11.0192   13.7661 H   0  0  0  0  0  0  0  0  0  0  0  0
    9.6559  -11.6954   16.6373 H   0  0  0  0  0  0  0  0  0  0  0  0
   12.7966  -10.0311   15.6846 H   0  0  0  0  0  0  0  0  0  0  0  0
   13.2555   -7.0951   15.7803 H   0  0  0  0  0  0  0  0  0  0  0  0
   11.2697   -5.5934   15.8110 H   0  0  0  0  0  0  0  0  0  0  0  0
    8.8814   -7.1790   14.8289 H   0  0  0  0  0  0  0  0  0  0  0  0
    4.0673  -17.9060   14.1678 H   0  0  0  0  0  0  0  0  0  0  0  0
    5.4195  -18.3359   13.1766 H   0  0  0  0  0  0  0  0  0  0  0  0
    4.1489  -19.3223   11.6183 H   0  0  0  0  0  0  0  0  0  0  0  0
    3.3612  -17.8014   11.2480 H   0  0  0  0  0  0  0  0  0  0  0  0
    1.7687  -18.6006   13.2102 H   0  0  0  0  0  0  0  0  0  0  0  0
   -1.0593  -21.3173   11.0739 H   0  0  0  0  0  0  0  0  0  0  0  0
   -2.9365  -21.1808   13.0536 H   0  0  0  0  0  0  0  0  0  0  0  0
    0.4504  -19.6036   14.5867 H   0  0  0  0  0  0  0  0  0  0  0  0
  1  2  2  0
  2  3  1  0
  3  4  1  0
  4  5  1  0
  5  6  2  0
  6  7  1  0
  7  8  1  0
  8  9  2  0
  9 10  1  0
 10 11  2  0
 11 12  1  0
 12 13  2  0
  2 14  1  0
 14 15  1  0
 15 16  1  0
 16 17  1  0
 17 18  1  0
 18 19  2  0
 18 20  1  0
 20 21  2  0
 21 22  1  0
 22 23  2  0
 23 24  1  0
 13  5  1  0
 24 20  1  0
 13  8  1  0
  3 25  1  0
  3 26  1  0
  4 27  1  0
  4 28  1  0
  6 29  1  0
  7 30  1  0
  9 31  1  0
 10 32  1  0
 11 33  1  0
 12 34  1  0
 15 35  1  0
 15 36  1  0
 16 37  1  0
 16 38  1  0
 17 39  1  0
 21 40  1  0
 22 41  1  0
 24 42  1  0
M  END
>  <Energy>  (481) 
714.63413647248046

>  <compound_id>  (481) 
25451

>  <target_id>  (481) 
1

>  <reference_id>  (481) 
93

>  <inspiration_ids>  (481) 
[93, 112]

>  <energy_score>  (481) 
716.1748785581984

>  <distance_score>  (481) 
10.597683301163512

>  <path>  (481) 
/opt/xchem-fragalysis-2/maxwin/BulkDock/SCRATCH/511017/C25451-P93/C25451-P93.minimised.mol

>  <scratch_subdir>  (481) 
/opt/xchem-fragalysis-2/maxwin/BulkDock/SCRATCH/511017/C25451-P93

>  <fragmenstein_runtime>  (481) 
21.023885488510132

>  <fragmenstein_outcome>  (481) 
too moved

>  <fragmenstein_mode>  (481) 
expansion

>  <fragmenstein_error>  (481) 


$$$$
C25451-P112
     RDKit          3D

 42 44  0  0  0  0  0  0  0  0999 V2000
    7.1048  -15.6200   21.7492 O   0  0  0  0  0  0  0  0  0  0  0  0
    7.9084  -16.5303   21.5749 C   0  0  0  0  0  0  0  0  0  0  0  0
    9.3985  -16.4057   21.9264 C   0  0  0  0  0  0  0  0  0  0  0  0
   10.3606  -15.6950   20.9423 C   0  0  0  0  0  0  0  0  0  0  0  0
   10.4368  -14.1710   20.9063 C   0  0  0  0  0  0  0  0  0  0  0  0
    9.9963  -13.2743   21.8643 C   0  0  0  0  0  0  0  0  0  0  0  0
   10.1015  -12.0023   21.3656 N   0  0  0  0  0  0  0  0  0  0  0  0
   10.5752  -12.0492   20.0814 C   0  0  0  0  0  0  0  0  0  0  0  0
   10.5946  -11.0586   19.1051 C   0  0  0  0  0  0  0  0  0  0  0  0
   11.0981  -11.3803   17.8376 C   0  0  0  0  0  0  0  0  0  0  0  0
   11.6528  -12.6274   17.5956 C   0  0  0  0  0  0  0  0  0  0  0  0
   11.5772  -13.6284   18.5762 C   0  0  0  0  0  0  0  0  0  0  0  0
   10.9585  -13.3607   19.8217 C   0  0  0  0  0  0  0  0  0  0  0  0
    7.5622  -17.7827   21.0953 O   0  0  0  0  0  0  0  0  0  0  0  0
    6.1586  -17.9497   20.6946 C   0  0  0  0  0  0  0  0  0  0  0  0
    5.7948  -19.4019   20.2904 C   0  0  0  0  0  0  0  0  0  0  0  0
    4.3783  -19.6676   19.9542 N   0  0  0  0  0  0  0  0  0  0  0  0
    3.7021  -19.7226   18.6794 C   0  0  0  0  0  0  0  0  0  0  0  0
    4.0998  -19.4893   17.5773 O   0  0  0  0  0  0  0  0  0  0  0  0
    2.2967  -20.2089   18.7609 C   0  0  0  0  0  0  0  0  0  0  0  0
    1.4700  -20.7024   19.7626 C   0  0  0  0  0  0  0  0  0  0  0  0
    0.2329  -21.0133   19.1493 C   0  0  0  0  0  0  0  0  0  0  0  0
    0.2348  -20.7260   17.8514 N   0  0  0  0  0  0  0  0  0  0  0  0
    1.4950  -20.2909   17.6254 N   0  0  0  0  0  0  0  0  0  0  0  0
    9.4580  -15.9506   22.9224 H   0  0  0  0  0  0  0  0  0  0  0  0
    9.7638  -17.4330   22.0623 H   0  0  0  0  0  0  0  0  0  0  0  0
   10.1642  -16.0583   19.9289 H   0  0  0  0  0  0  0  0  0  0  0  0
   11.3770  -16.0320   21.1899 H   0  0  0  0  0  0  0  0  0  0  0  0
    9.5463  -13.4361   22.8346 H   0  0  0  0  0  0  0  0  0  0  0  0
    9.7521  -11.1696   21.8193 H   0  0  0  0  0  0  0  0  0  0  0  0
   10.1260  -10.1118   19.3295 H   0  0  0  0  0  0  0  0  0  0  0  0
   11.0441  -10.6582   17.0269 H   0  0  0  0  0  0  0  0  0  0  0  0
   12.0587  -12.8708   16.6176 H   0  0  0  0  0  0  0  0  0  0  0  0
   11.9016  -14.6381   18.3398 H   0  0  0  0  0  0  0  0  0  0  0  0
    5.9858  -17.3104   19.8278 H   0  0  0  0  0  0  0  0  0  0  0  0
    5.5208  -17.6457   21.5311 H   0  0  0  0  0  0  0  0  0  0  0  0
    6.0627  -20.0841   21.1043 H   0  0  0  0  0  0  0  0  0  0  0  0
    6.3985  -19.6883   19.4218 H   0  0  0  0  0  0  0  0  0  0  0  0
    3.7567  -20.0107   20.6715 H   0  0  0  0  0  0  0  0  0  0  0  0
    1.7149  -20.8381   20.8054 H   0  0  0  0  0  0  0  0  0  0  0  0
   -0.6619  -21.4252   19.5984 H   0  0  0  0  0  0  0  0  0  0  0  0
    1.7657  -20.0285   16.6787 H   0  0  0  0  0  0  0  0  0  0  0  0
  1  2  2  0
  2  3  1  0
  3  4  1  0
  4  5  1  0
  5  6  2  0
  6  7  1  0
  7  8  1  0
  8  9  2  0
  9 10  1  0
 10 11  2  0
 11 12  1  0
 12 13  2  0
  2 14  1  0
 14 15  1  0
 15 16  1  0
 16 17  1  0
 17 18  1  0
 18 19  2  0
 18 20  1  0
 20 21  2  0
 21 22  1  0
 22 23  2  0
 23 24  1  0
 13  5  1  0
 24 20  1  0
 13  8  1  0
  3 25  1  0
  3 26  1  0
  4 27  1  0
  4 28  1  0
  6 29  1  0
  7 30  1  0
  9 31  1  0
 10 32  1  0
 11 33  1  0
 12 34  1  0
 15 35  1  0
 15 36  1  0
 16 37  1  0
 16 38  1  0
 17 39  1  0
 21 40  1  0
 22 41  1  0
 24 42  1  0
M  END
>  <Energy>  (482) 
-3.5655521772572834

>  <compound_id>  (482) 
25451

>  <target_id>  (482) 
1

>  <reference_id>  (482) 
112

>  <inspiration_ids>  (482) 
[93, 112]

>  <energy_score>  (482) 
-2.0248100915353717

>  <distance_score>  (482) 
13.622625524566015

>  <path>  (482) 
/opt/xchem-fragalysis-2/maxwin/BulkDock/SCRATCH/511017/C25451-P112/C25451-P112.minimised.mol

>  <scratch_subdir>  (482) 
/opt/xchem-fragalysis-2/maxwin/BulkDock/SCRATCH/511017/C25451-P112

>  <fragmenstein_runtime>  (482) 
19.930181980133057

>  <fragmenstein_outcome>  (482) 
too moved

>  <fragmenstein_mode>  (482) 
expansion

>  <fragmenstein_error>  (482) 


$$$$
C74271-P13
     RDKit          3D

 38 41  0  0  0  0  0  0  0  0999 V2000
    5.0092   -3.1636   26.1161 O   0  0  0  0  0  0  0  0  0  0  0  0
    5.0834   -4.3529   25.9640 C   0  0  0  0  0  0  0  0  0  0  0  0
    4.3373   -5.1959   27.0013 C   0  0  0  0  0  0  0  0  0  0  0  0
    3.9497   -4.3770   28.2790 C   0  0  0  0  0  0  0  0  0  0  0  0
    2.7221   -3.4645   28.2928 C   0  0  0  0  0  0  0  0  0  0  0  0
    1.4894   -3.9459   28.7859 C   0  0  0  0  0  0  0  0  0  0  0  0
    0.3587   -3.1176   28.8980 C   0  0  0  0  0  0  0  0  0  0  0  0
    0.4776   -1.7981   28.5291 C   0  0  0  0  0  0  0  0  0  0  0  0
    1.6658   -1.3018   28.0591 C   0  0  0  0  0  0  0  0  0  0  0  0
    2.7967   -2.1020   27.9367 C   0  0  0  0  0  0  0  0  0  0  0  0
    1.5712    0.0187   27.7351 O   0  0  0  0  0  0  0  0  0  0  0  0
    0.1762    0.2723   28.0108 C   0  0  0  0  0  0  0  0  0  0  0  0
   -0.5055   -0.8604   28.5820 O   0  0  0  0  0  0  0  0  0  0  0  0
    5.6929   -5.1438   24.8893 N   0  0  0  0  0  0  0  0  0  0  0  0
    6.2776   -4.7498   23.6941 C   0  0  0  0  0  0  0  0  0  0  0  0
    6.8693   -5.3229   22.6135 N   0  0  0  0  0  0  0  0  0  0  0  0
    7.6792   -4.4132   21.2039 C   0  0  0  0  0  0  0  0  0  0  0  0
    9.8695   -4.9899   21.0396 C   0  0  0  0  0  0  0  0  0  0  0  0
   11.0592   -4.1505   21.7364 C   0  0  0  0  0  0  0  0  0  0  0  0
   12.4059   -4.4509   21.4232 C   0  0  0  0  0  0  0  0  0  0  0  0
   12.5279   -5.7841   21.2456 C   0  0  0  0  0  0  0  0  0  0  0  0
   11.0794   -6.5946   21.6902 S   0  0  0  0  0  0  0  0  0  0  0  0
    6.9992   -3.1790   21.4949 C   0  0  0  0  0  0  0  0  0  0  0  0
    5.9317   -3.0417   23.3453 S   0  0  0  0  0  0  0  0  0  0  0  0
    5.0003   -6.0148   27.3028 H   0  0  0  0  0  0  0  0  0  0  0  0
    3.4419   -5.6175   26.5329 H   0  0  0  0  0  0  0  0  0  0  0  0
    3.8060   -5.1090   29.0863 H   0  0  0  0  0  0  0  0  0  0  0  0
    4.8144   -3.7810   28.6023 H   0  0  0  0  0  0  0  0  0  0  0  0
    1.4068   -4.9791   29.1142 H   0  0  0  0  0  0  0  0  0  0  0  0
   -0.5879   -3.5041   29.2586 H   0  0  0  0  0  0  0  0  0  0  0  0
    3.7231   -1.6635   27.5759 H   0  0  0  0  0  0  0  0  0  0  0  0
   -0.3268    0.5579   27.0803 H   0  0  0  0  0  0  0  0  0  0  0  0
    0.1090    1.1100   28.7142 H   0  0  0  0  0  0  0  0  0  0  0  0
    5.6413   -6.1204   25.1279 H   0  0  0  0  0  0  0  0  0  0  0  0
   10.8700   -3.2116   22.2189 H   0  0  0  0  0  0  0  0  0  0  0  0
   13.2447   -3.7748   21.5256 H   0  0  0  0  0  0  0  0  0  0  0  0
   13.4622   -6.3184   21.1516 H   0  0  0  0  0  0  0  0  0  0  0  0
    6.0982   -2.7905   20.9747 H   0  0  0  0  0  0  0  0  0  0  0  0
  1  2  2  0
  2  3  1  0
  3  4  1  0
  4  5  1  0
  5  6  2  0
  6  7  1  0
  7  8  2  0
  8  9  1  0
  9 10  2  0
  9 11  1  0
 11 12  1  0
 12 13  1  0
  2 14  1  0
 14 15  1  0
 15 16  2  0
 16 17  1  0
 17 18  1  0
 18 19  2  0
 19 20  1  0
 20 21  2  0
 21 22  1  0
 17 23  2  0
 23 24  1  0
 10  5  1  0
 24 15  1  0
 13  8  1  0
 22 18  1  0
  3 25  1  0
  3 26  1  0
  4 27  1  0
  4 28  1  0
  6 29  1  0
  7 30  1  0
 10 31  1  0
 12 32  1  0
 12 33  1  0
 14 34  1  0
 19 35  1  0
 20 36  1  0
 21 37  1  0
 23 38  1  0
M  END
>  <Energy>  (483) 
335.96187648497511

>  <compound_id>  (483) 
74271

>  <target_id>  (483) 
1

>  <reference_id>  (483) 
13

>  <inspiration_ids>  (483) 
[13, 66]

>  <energy_score>  (483) 
253.56240648510777

>  <distance_score>  (483) 
6.43032150833932

>  <path>  (483) 
/opt/xchem-fragalysis-2/maxwin/BulkDock/SCRATCH/511017/C74271-P13/C74271-P13.minimised.mol

>  <scratch_subdir>  (483) 
/opt/xchem-fragalysis-2/maxwin/BulkDock/SCRATCH/511017/C74271-P13

>  <fragmenstein_runtime>  (483) 
8.684317827224731

>  <fragmenstein_outcome>  (483) 
too moved

>  <fragmenstein_mode>  (483) 
expansion

>  <fragmenstein_error>  (483) 


$$$$
C74271-P66
     RDKit          3D

 38 41  0  0  0  0  0  0  0  0999 V2000
    4.0266   -3.2760   24.4701 O   0  0  0  0  0  0  0  0  0  0  0  0
    4.0629   -2.0965   24.4457 C   0  0  0  0  0  0  0  0  0  0  0  0
    3.6122   -1.2201   25.6456 C   0  0  0  0  0  0  0  0  0  0  0  0
    2.9481   -1.8576   26.8766 C   0  0  0  0  0  0  0  0  0  0  0  0
    2.0189   -0.8626   27.5698 C   0  0  0  0  0  0  0  0  0  0  0  0
    2.4822    0.4241   27.9323 C   0  0  0  0  0  0  0  0  0  0  0  0
    1.5947    1.4224   28.3503 C   0  0  0  0  0  0  0  0  0  0  0  0
    0.2546    1.1113   28.3931 C   0  0  0  0  0  0  0  0  0  0  0  0
   -0.2012   -0.1522   28.1080 C   0  0  0  0  0  0  0  0  0  0  0  0
    0.6590   -1.1677   27.7428 C   0  0  0  0  0  0  0  0  0  0  0  0
   -1.5577   -0.2396   28.1717 O   0  0  0  0  0  0  0  0  0  0  0  0
   -1.9006    1.1308   28.4581 C   0  0  0  0  0  0  0  0  0  0  0  0
   -0.7542    1.9746   28.6838 O   0  0  0  0  0  0  0  0  0  0  0  0
    4.5798   -1.1809   23.4491 N   0  0  0  0  0  0  0  0  0  0  0  0
    5.4457   -1.4455   21.9625 C   0  0  0  0  0  0  0  0  0  0  0  0
    6.0109   -0.1728   21.0637 N   0  0  0  0  0  0  0  0  0  0  0  0
    7.1516    0.0991   19.6119 C   0  0  0  0  0  0  0  0  0  0  0  0
    7.6280   -0.1383   17.5164 C   0  0  0  0  0  0  0  0  0  0  0  0
    6.7207   -0.6318   16.5446 C   0  0  0  0  0  0  0  0  0  0  0  0
    6.9745   -1.3038   14.9921 C   0  0  0  0  0  0  0  0  0  0  0  0
    8.1083   -0.7015   14.5756 C   0  0  0  0  0  0  0  0  0  0  0  0
    8.5834   -1.5446   15.8923 S   0  0  0  0  0  0  0  0  0  0  0  0
    7.3561   -1.1094   20.0922 C   0  0  0  0  0  0  0  0  0  0  0  0
    5.9305   -2.6033   20.9290 S   0  0  0  0  0  0  0  0  0  0  0  0
    4.5267   -0.7240   26.0035 H   0  0  0  0  0  0  0  0  0  0  0  0
    2.9863   -0.4187   25.2646 H   0  0  0  0  0  0  0  0  0  0  0  0
    3.7159   -2.1715   27.5939 H   0  0  0  0  0  0  0  0  0  0  0  0
    2.3958   -2.7576   26.6076 H   0  0  0  0  0  0  0  0  0  0  0  0
    3.5385    0.6679   27.8352 H   0  0  0  0  0  0  0  0  0  0  0  0
    1.9445    2.4204   28.5881 H   0  0  0  0  0  0  0  0  0  0  0  0
    0.2706   -2.1513   27.5070 H   0  0  0  0  0  0  0  0  0  0  0  0
   -2.5259    1.1445   29.3566 H   0  0  0  0  0  0  0  0  0  0  0  0
   -2.4763    1.5356   27.6174 H   0  0  0  0  0  0  0  0  0  0  0  0
    4.3600   -0.2210   23.7285 H   0  0  0  0  0  0  0  0  0  0  0  0
    5.8380   -0.8797   17.1451 H   0  0  0  0  0  0  0  0  0  0  0  0
    6.1978   -1.7333   14.3553 H   0  0  0  0  0  0  0  0  0  0  0  0
    8.4725   -0.4337   13.6052 H   0  0  0  0  0  0  0  0  0  0  0  0
    6.8884   -1.2572   19.1573 H   0  0  0  0  0  0  0  0  0  0  0  0
  1  2  2  0
  2  3  1  0
  3  4  1  0
  4  5  1  0
  5  6  2  0
  6  7  1  0
  7  8  2  0
  8  9  1  0
  9 10  2  0
  9 11  1  0
 11 12  1  0
 12 13  1  0
  2 14  1  0
 14 15  1  0
 15 16  2  0
 16 17  1  0
 17 18  1  0
 18 19  2  0
 19 20  1  0
 20 21  2  0
 21 22  1  0
 17 23  2  0
 23 24  1  0
 10  5  1  0
 24 15  1  0
 13  8  1  0
 22 18  1  0
  3 25  1  0
  3 26  1  0
  4 27  1  0
  4 28  1  0
  6 29  1  0
  7 30  1  0
 10 31  1  0
 12 32  1  0
 12 33  1  0
 14 34  1  0
 19 35  1  0
 20 36  1  0
 21 37  1  0
 23 38  1  0
M  END
>  <Energy>  (484) 
720.88989841801799

>  <compound_id>  (484) 
74271

>  <target_id>  (484) 
1

>  <reference_id>  (484) 
66

>  <inspiration_ids>  (484) 
[13, 66]

>  <energy_score>  (484) 
638.4904284181557

>  <distance_score>  (484) 
5.737304973321866

>  <path>  (484) 
/opt/xchem-fragalysis-2/maxwin/BulkDock/SCRATCH/511017/C74271-P66/C74271-P66.minimised.mol

>  <scratch_subdir>  (484) 
/opt/xchem-fragalysis-2/maxwin/BulkDock/SCRATCH/511017/C74271-P66

>  <fragmenstein_runtime>  (484) 
7.5091612339019775

>  <fragmenstein_outcome>  (484) 
too moved

>  <fragmenstein_mode>  (484) 
expansion

>  <fragmenstein_error>  (484) 


$$$$
C74272-P13
     RDKit          3D

 44 48  0  0  0  0  0  0  0  0999 V2000
    3.7262    2.6002   18.6756 O   0  0  0  0  0  0  0  0  0  0  0  0
    4.4600    3.2900   19.3297 C   0  0  0  0  0  0  0  0  0  0  0  0
    3.7949    4.0789   20.4934 C   0  0  0  0  0  0  0  0  0  0  0  0
    3.2527    3.0767   21.5613 C   0  0  0  0  0  0  0  0  0  0  0  0
    2.4298    3.5964   22.7364 C   0  0  0  0  0  0  0  0  0  0  0  0
    1.2842    4.3901   22.5097 C   0  0  0  0  0  0  0  0  0  0  0  0
    0.3606    4.6538   23.5326 C   0  0  0  0  0  0  0  0  0  0  0  0
    0.5901    4.1064   24.7731 C   0  0  0  0  0  0  0  0  0  0  0  0
    1.7100    3.3569   25.0261 C   0  0  0  0  0  0  0  0  0  0  0  0
    2.6508    3.0965   24.0404 C   0  0  0  0  0  0  0  0  0  0  0  0
    1.7143    2.8610   26.2945 O   0  0  0  0  0  0  0  0  0  0  0  0
    0.4604    3.3756   26.7992 C   0  0  0  0  0  0  0  0  0  0  0  0
   -0.2418    4.1910   25.8432 O   0  0  0  0  0  0  0  0  0  0  0  0
    5.9011    3.4472   19.2839 N   0  0  0  0  0  0  0  0  0  0  0  0
    6.8753    2.7732   18.5298 N   0  0  0  0  0  0  0  0  0  0  0  0
    6.9501    1.4354   18.8283 C   0  0  0  0  0  0  0  0  0  0  0  0
    7.7059    0.5759   18.2427 N   0  0  0  0  0  0  0  0  0  0  0  0
    8.3947    1.0604   17.1937 C   0  0  0  0  0  0  0  0  0  0  0  0
    9.0617   -0.0422   16.0840 S   0  0  0  0  0  0  0  0  0  0  0  0
    9.9098    1.1895   15.3140 C   0  0  0  0  0  0  0  0  0  0  0  0
    9.6641    2.4342   15.8706 C   0  0  0  0  0  0  0  0  0  0  0  0
   10.5828    3.6200   15.3950 C   0  0  0  0  0  0  0  0  0  0  0  0
   11.5706    3.4809   14.4333 C   0  0  0  0  0  0  0  0  0  0  0  0
   12.3503    4.6575   14.2769 C   0  0  0  0  0  0  0  0  0  0  0  0
   11.9207    5.6582   15.1145 C   0  0  0  0  0  0  0  0  0  0  0  0
   10.5835    5.1794   16.0614 S   0  0  0  0  0  0  0  0  0  0  0  0
    8.6038    2.3852   16.8631 C   0  0  0  0  0  0  0  0  0  0  0  0
    7.7634    3.3744   17.6050 C   0  0  0  0  0  0  0  0  0  0  0  0
    7.7986    4.5871   17.4148 O   0  0  0  0  0  0  0  0  0  0  0  0
    4.4686    4.8172   20.9313 H   0  0  0  0  0  0  0  0  0  0  0  0
    2.9678    4.6497   20.0544 H   0  0  0  0  0  0  0  0  0  0  0  0
    4.0866    2.4770   21.9376 H   0  0  0  0  0  0  0  0  0  0  0  0
    2.6098    2.3558   21.0387 H   0  0  0  0  0  0  0  0  0  0  0  0
    1.0641    4.7603   21.5098 H   0  0  0  0  0  0  0  0  0  0  0  0
   -0.5350    5.2361   23.3417 H   0  0  0  0  0  0  0  0  0  0  0  0
    3.4894    2.4384   24.2525 H   0  0  0  0  0  0  0  0  0  0  0  0
    0.6636    3.9756   27.6935 H   0  0  0  0  0  0  0  0  0  0  0  0
   -0.1777    2.5292   27.0788 H   0  0  0  0  0  0  0  0  0  0  0  0
    6.1921    4.0537   20.0403 H   0  0  0  0  0  0  0  0  0  0  0  0
    6.3006    1.1332   19.6565 H   0  0  0  0  0  0  0  0  0  0  0  0
   10.5771    0.9126   14.5113 H   0  0  0  0  0  0  0  0  0  0  0  0
   11.7609    2.5809   13.8645 H   0  0  0  0  0  0  0  0  0  0  0  0
   13.1762    4.7678   13.5851 H   0  0  0  0  0  0  0  0  0  0  0  0
   12.3164    6.6601   15.2098 H   0  0  0  0  0  0  0  0  0  0  0  0
  1  2  2  0
  2  3  1  0
  3  4  1  0
  4  5  1  0
  5  6  2  0
  6  7  1  0
  7  8  2  0
  8  9  1  0
  9 10  2  0
  9 11  1  0
 11 12  1  0
 12 13  1  0
  2 14  1  0
 14 15  1  0
 15 16  1  0
 16 17  2  0
 17 18  1  0
 18 19  1  0
 19 20  1  0
 20 21  2  0
 21 22  1  0
 22 23  2  0
 23 24  1  0
 24 25  2  0
 25 26  1  0
 21 27  1  0
 27 28  1  0
 28 29  2  0
 10  5  1  0
 28 15  1  0
 13  8  1  0
 27 18  2  0
 26 22  1  0
  3 30  1  0
  3 31  1  0
  4 32  1  0
  4 33  1  0
  6 34  1  0
  7 35  1  0
 10 36  1  0
 12 37  1  0
 12 38  1  0
 14 39  1  0
 16 40  1  0
 20 41  1  0
 23 42  1  0
 24 43  1  0
 25 44  1  0
M  END
>  <Energy>  (485) 
58.807737133555314

>  <compound_id>  (485) 
74272

>  <target_id>  (485) 
1

>  <reference_id>  (485) 
13

>  <inspiration_ids>  (485) 
[13, 66]

>  <energy_score>  (485) 
-63.35848082720736

>  <distance_score>  (485) 
8.71703843646597

>  <path>  (485) 
/opt/xchem-fragalysis-2/maxwin/BulkDock/SCRATCH/511017/C74272-P13/C74272-P13.minimised.mol

>  <scratch_subdir>  (485) 
/opt/xchem-fragalysis-2/maxwin/BulkDock/SCRATCH/511017/C74272-P13

>  <fragmenstein_runtime>  (485) 
11.595207452774048

>  <fragmenstein_outcome>  (485) 
too moved

>  <fragmenstein_mode>  (485) 
expansion

>  <fragmenstein_error>  (485) 


$$$$
C74272-P66
     RDKit          3D

 44 48  0  0  0  0  0  0  0  0999 V2000
    7.7979   -1.2654   26.7621 O   0  0  0  0  0  0  0  0  0  0  0  0
    7.7283   -0.1365   26.4048 C   0  0  0  0  0  0  0  0  0  0  0  0
    6.3057    0.6657   26.8382 C   0  0  0  0  0  0  0  0  0  0  0  0
    4.8925   -0.2410   27.0549 C   0  0  0  0  0  0  0  0  0  0  0  0
    3.5018    0.3372   27.5114 C   0  0  0  0  0  0  0  0  0  0  0  0
    3.0049    0.0827   28.8113 C   0  0  0  0  0  0  0  0  0  0  0  0
    1.6990    0.4636   29.2192 C   0  0  0  0  0  0  0  0  0  0  0  0
    0.8646    1.0923   28.3212 C   0  0  0  0  0  0  0  0  0  0  0  0
    1.3048    1.3545   27.0577 C   0  0  0  0  0  0  0  0  0  0  0  0
    2.6013    0.9933   26.6367 C   0  0  0  0  0  0  0  0  0  0  0  0
    0.3307    1.9554   26.3043 O   0  0  0  0  0  0  0  0  0  0  0  0
   -0.7639    2.0238   27.2417 C   0  0  0  0  0  0  0  0  0  0  0  0
   -0.4152    1.5016   28.5376 O   0  0  0  0  0  0  0  0  0  0  0  0
    8.7972    0.7721   25.5895 N   0  0  0  0  0  0  0  0  0  0  0  0
   10.2632    0.4509   25.1336 N   0  0  0  0  0  0  0  0  0  0  0  0
   10.9339   -0.3894   25.9862 C   0  0  0  0  0  0  0  0  0  0  0  0
   12.1285   -0.8401   25.8080 N   0  0  0  0  0  0  0  0  0  0  0  0
   12.7529   -0.5168   24.6430 C   0  0  0  0  0  0  0  0  0  0  0  0
   14.2417   -1.2948   24.3640 S   0  0  0  0  0  0  0  0  0  0  0  0
   14.4256   -0.5828   22.8400 C   0  0  0  0  0  0  0  0  0  0  0  0
   13.4474    0.3569   22.5249 C   0  0  0  0  0  0  0  0  0  0  0  0
   13.7820    1.1178   21.0957 C   0  0  0  0  0  0  0  0  0  0  0  0
   13.1252    2.1739   20.4955 C   0  0  0  0  0  0  0  0  0  0  0  0
   13.6145    2.4595   19.1646 C   0  0  0  0  0  0  0  0  0  0  0  0
   14.6324    1.6171   18.7708 C   0  0  0  0  0  0  0  0  0  0  0  0
   15.1247    0.5998   20.0550 S   0  0  0  0  0  0  0  0  0  0  0  0
   12.3541    0.3471   23.6153 C   0  0  0  0  0  0  0  0  0  0  0  0
   10.9545    0.9621   23.9169 C   0  0  0  0  0  0  0  0  0  0  0  0
   10.4612    1.8266   23.1935 O   0  0  0  0  0  0  0  0  0  0  0  0
    6.1125    1.4693   26.1360 H   0  0  0  0  0  0  0  0  0  0  0  0
    6.5243    1.1317   27.8069 H   0  0  0  0  0  0  0  0  0  0  0  0
    5.1651   -1.0376   27.7600 H   0  0  0  0  0  0  0  0  0  0  0  0
    4.7172   -0.7557   26.1010 H   0  0  0  0  0  0  0  0  0  0  0  0
    3.6321   -0.4492   29.5258 H   0  0  0  0  0  0  0  0  0  0  0  0
    1.3560    0.2393   30.2237 H   0  0  0  0  0  0  0  0  0  0  0  0
    2.8955    1.1789   25.6067 H   0  0  0  0  0  0  0  0  0  0  0  0
   -1.6074    1.4487   26.8425 H   0  0  0  0  0  0  0  0  0  0  0  0
   -1.0682    3.0706   27.3525 H   0  0  0  0  0  0  0  0  0  0  0  0
    8.4535    1.7230   25.5189 H   0  0  0  0  0  0  0  0  0  0  0  0
   10.3800   -0.6686   26.8947 H   0  0  0  0  0  0  0  0  0  0  0  0
   15.3040   -0.8717   22.2851 H   0  0  0  0  0  0  0  0  0  0  0  0
   12.2931    2.6926   20.9587 H   0  0  0  0  0  0  0  0  0  0  0  0
   13.2043    3.2367   18.5302 H   0  0  0  0  0  0  0  0  0  0  0  0
   15.1606    1.6052   17.8273 H   0  0  0  0  0  0  0  0  0  0  0  0
  1  2  2  0
  2  3  1  0
  3  4  1  0
  4  5  1  0
  5  6  2  0
  6  7  1  0
  7  8  2  0
  8  9  1  0
  9 10  2  0
  9 11  1  0
 11 12  1  0
 12 13  1  0
  2 14  1  0
 14 15  1  0
 15 16  1  0
 16 17  2  0
 17 18  1  0
 18 19  1  0
 19 20  1  0
 20 21  2  0
 21 22  1  0
 22 23  2  0
 23 24  1  0
 24 25  2  0
 25 26  1  0
 21 27  1  0
 27 28  1  0
 28 29  2  0
 10  5  1  0
 28 15  1  0
 13  8  1  0
 27 18  2  0
 26 22  1  0
  3 30  1  0
  3 31  1  0
  4 32  1  0
  4 33  1  0
  6 34  1  0
  7 35  1  0
 10 36  1  0
 12 37  1  0
 12 38  1  0
 14 39  1  0
 16 40  1  0
 20 41  1  0
 23 42  1  0
 24 43  1  0
 25 44  1  0
M  END
>  <Energy>  (486) 
122.72265080780659

>  <compound_id>  (486) 
74272

>  <target_id>  (486) 
1

>  <reference_id>  (486) 
66

>  <inspiration_ids>  (486) 
[13, 66]

>  <energy_score>  (486) 
15.410091067401424

>  <distance_score>  (486) 
6.5692053102712595

>  <path>  (486) 
/opt/xchem-fragalysis-2/maxwin/BulkDock/SCRATCH/511017/C74272-P66/C74272-P66.minimised.mol

>  <scratch_subdir>  (486) 
/opt/xchem-fragalysis-2/maxwin/BulkDock/SCRATCH/511017/C74272-P66

>  <fragmenstein_runtime>  (486) 
10.496329307556152

>  <fragmenstein_outcome>  (486) 
too moved

>  <fragmenstein_mode>  (486) 
expansion

>  <fragmenstein_error>  (486) 


$$$$
C74273-P13
     RDKit          3D

 45 48  0  0  0  0  0  0  0  0999 V2000
   15.2531   -2.5411   27.3377 C   0  0  0  0  0  0  0  0  0  0  0  0
   14.3301   -3.3887   26.8625 C   0  0  0  0  0  0  0  0  0  0  0  0
   13.7805   -3.3715   25.4432 C   0  0  0  0  0  0  0  0  0  0  0  0
   12.3677   -2.9413   25.6431 N   0  0  0  0  0  0  0  0  0  0  0  0
   12.2188   -3.5296   24.2058 C   0  0  0  0  0  0  0  0  0  0  0  0
   13.0503   -3.2093   22.9465 C   0  0  0  0  0  0  0  0  0  0  0  0
   13.7276   -2.0763   22.5260 C   0  0  0  0  0  0  0  0  0  0  0  0
   14.3410   -2.2312   21.2431 C   0  0  0  0  0  0  0  0  0  0  0  0
   14.0922   -3.4684   20.6964 C   0  0  0  0  0  0  0  0  0  0  0  0
   13.1561   -4.4456   21.7364 S   0  0  0  0  0  0  0  0  0  0  0  0
   11.7827   -1.6177   25.7030 C   0  0  0  0  0  0  0  0  0  0  0  0
   12.2760   -0.5368   25.5158 O   0  0  0  0  0  0  0  0  0  0  0  0
   10.3146   -1.8013   26.1911 C   0  0  0  0  0  0  0  0  0  0  0  0
    9.3699   -0.2477   26.3732 S   0  0  0  0  0  0  0  0  0  0  0  0
    7.8090   -0.8325   26.9194 C   0  0  0  0  0  0  0  0  0  0  0  0
    7.6092   -1.9961   27.5045 N   0  0  0  0  0  0  0  0  0  0  0  0
    6.2635   -2.0663   27.8151 N   0  0  0  0  0  0  0  0  0  0  0  0
    5.7142   -0.9363   27.4098 C   0  0  0  0  0  0  0  0  0  0  0  0
    4.3093   -0.4997   27.5310 C   0  0  0  0  0  0  0  0  0  0  0  0
    3.3592   -1.3978   28.0914 C   0  0  0  0  0  0  0  0  0  0  0  0
    2.0095   -1.0482   28.2617 C   0  0  0  0  0  0  0  0  0  0  0  0
    1.6217    0.2118   27.8713 C   0  0  0  0  0  0  0  0  0  0  0  0
    2.5202    1.0967   27.3234 C   0  0  0  0  0  0  0  0  0  0  0  0
    3.8594    0.7732   27.1352 C   0  0  0  0  0  0  0  0  0  0  0  0
    1.9303    2.2832   27.0018 O   0  0  0  0  0  0  0  0  0  0  0  0
    0.5684    2.0464   27.4284 C   0  0  0  0  0  0  0  0  0  0  0  0
    0.3664    0.7251   27.9681 O   0  0  0  0  0  0  0  0  0  0  0  0
    6.6404   -0.0931   26.8336 O   0  0  0  0  0  0  0  0  0  0  0  0
   15.5942   -2.6092   28.3658 H   0  0  0  0  0  0  0  0  0  0  0  0
   15.6694   -1.7487   26.7225 H   0  0  0  0  0  0  0  0  0  0  0  0
   13.9313   -4.1554   27.5232 H   0  0  0  0  0  0  0  0  0  0  0  0
   13.9663   -4.4051   25.1075 H   0  0  0  0  0  0  0  0  0  0  0  0
   14.3723   -2.6166   24.9154 H   0  0  0  0  0  0  0  0  0  0  0  0
   11.2060   -3.2210   23.9107 H   0  0  0  0  0  0  0  0  0  0  0  0
   12.1057   -4.6217   24.3286 H   0  0  0  0  0  0  0  0  0  0  0  0
   13.7635   -1.1613   23.1100 H   0  0  0  0  0  0  0  0  0  0  0  0
   14.9160   -1.4613   20.7441 H   0  0  0  0  0  0  0  0  0  0  0  0
   14.4134   -3.8528   19.7373 H   0  0  0  0  0  0  0  0  0  0  0  0
    9.7929   -2.4628   25.5021 H   0  0  0  0  0  0  0  0  0  0  0  0
   10.3586   -2.2870   27.1726 H   0  0  0  0  0  0  0  0  0  0  0  0
    3.6815   -2.3912   28.4044 H   0  0  0  0  0  0  0  0  0  0  0  0
    1.2945   -1.7446   28.6846 H   0  0  0  0  0  0  0  0  0  0  0  0
    4.5343    1.4998   26.6937 H   0  0  0  0  0  0  0  0  0  0  0  0
    0.3094    2.7840   28.1968 H   0  0  0  0  0  0  0  0  0  0  0  0
   -0.0981    2.1837   26.5695 H   0  0  0  0  0  0  0  0  0  0  0  0
  1  2  2  0
  2  3  1  0
  3  4  1  0
  4  5  1  0
  5  6  1  0
  6  7  2  0
  7  8  1  0
  8  9  2  0
  9 10  1  0
  4 11  1  0
 11 12  2  0
 11 13  1  0
 13 14  1  0
 14 15  1  0
 15 16  2  0
 16 17  1  0
 17 18  2  0
 18 19  1  0
 19 20  2  0
 20 21  1  0
 21 22  2  0
 22 23  1  0
 23 24  2  0
 23 25  1  0
 25 26  1  0
 26 27  1  0
 18 28  1  0
 10  6  1  0
 28 15  1  0
 24 19  1  0
 27 22  1  0
  1 29  1  0
  1 30  1  0
  2 31  1  0
  3 32  1  0
  3 33  1  0
  5 34  1  0
  5 35  1  0
  7 36  1  0
  8 37  1  0
  9 38  1  0
 13 39  1  0
 13 40  1  0
 20 41  1  0
 21 42  1  0
 24 43  1  0
 26 44  1  0
 26 45  1  0
M  END
>  <Energy>  (487) 
103.57252353343701

>  <compound_id>  (487) 
74273

>  <target_id>  (487) 
1

>  <reference_id>  (487) 
13

>  <inspiration_ids>  (487) 
[13, 66]

>  <energy_score>  (487) 
2.1021571363844487

>  <distance_score>  (487) 
5.662275629554914

>  <path>  (487) 
/opt/xchem-fragalysis-2/maxwin/BulkDock/SCRATCH/511017/C74273-P13/C74273-P13.minimised.mol

>  <scratch_subdir>  (487) 
/opt/xchem-fragalysis-2/maxwin/BulkDock/SCRATCH/511017/C74273-P13

>  <fragmenstein_runtime>  (487) 
12.277024269104004

>  <fragmenstein_outcome>  (487) 
too moved

>  <fragmenstein_mode>  (487) 
expansion

>  <fragmenstein_error>  (487) 


$$$$
C74273-P66
     RDKit          3D

 45 48  0  0  0  0  0  0  0  0999 V2000
   15.5969   -2.4801   27.5981 C   0  0  0  0  0  0  0  0  0  0  0  0
   14.2700   -2.5320   27.7810 C   0  0  0  0  0  0  0  0  0  0  0  0
   13.3179   -3.2920   26.8860 C   0  0  0  0  0  0  0  0  0  0  0  0
   12.0547   -2.5656   26.4889 N   0  0  0  0  0  0  0  0  0  0  0  0
   12.9928   -1.9839   25.4008 C   0  0  0  0  0  0  0  0  0  0  0  0
   13.4098   -2.8658   24.2144 C   0  0  0  0  0  0  0  0  0  0  0  0
   12.8216   -4.0022   23.6868 C   0  0  0  0  0  0  0  0  0  0  0  0
   13.4848   -4.4847   22.5154 C   0  0  0  0  0  0  0  0  0  0  0  0
   14.5814   -3.7193   22.1936 C   0  0  0  0  0  0  0  0  0  0  0  0
   14.8218   -2.4459   23.3121 S   0  0  0  0  0  0  0  0  0  0  0  0
   11.3364   -1.4984   27.1469 C   0  0  0  0  0  0  0  0  0  0  0  0
   11.6137   -0.8576   28.1314 O   0  0  0  0  0  0  0  0  0  0  0  0
    9.9606   -1.2529   26.5000 C   0  0  0  0  0  0  0  0  0  0  0  0
    8.6401   -1.9345   27.5620 S   0  0  0  0  0  0  0  0  0  0  0  0
    7.2995   -0.8442   27.2992 C   0  0  0  0  0  0  0  0  0  0  0  0
    7.4023    0.4036   26.8835 N   0  0  0  0  0  0  0  0  0  0  0  0
    6.1227    0.9394   26.8962 N   0  0  0  0  0  0  0  0  0  0  0  0
    5.3107   -0.0241   27.2919 C   0  0  0  0  0  0  0  0  0  0  0  0
    3.8506   -0.0078   27.4768 C   0  0  0  0  0  0  0  0  0  0  0  0
    3.1057   -1.1956   27.6749 C   0  0  0  0  0  0  0  0  0  0  0  0
    1.7083   -1.1718   27.8353 C   0  0  0  0  0  0  0  0  0  0  0  0
    1.0712    0.0487   27.7886 C   0  0  0  0  0  0  0  0  0  0  0  0
    1.7752    1.2111   27.5893 C   0  0  0  0  0  0  0  0  0  0  0  0
    3.1521    1.2165   27.4355 C   0  0  0  0  0  0  0  0  0  0  0  0
    0.9628    2.3033   27.5420 O   0  0  0  0  0  0  0  0  0  0  0  0
   -0.3326    1.6917   27.7151 C   0  0  0  0  0  0  0  0  0  0  0  0
   -0.2691    0.2615   27.8914 O   0  0  0  0  0  0  0  0  0  0  0  0
    5.9951   -1.1752   27.6017 O   0  0  0  0  0  0  0  0  0  0  0  0
   16.2268   -1.9227   28.2852 H   0  0  0  0  0  0  0  0  0  0  0  0
   16.0818   -2.9830   26.7669 H   0  0  0  0  0  0  0  0  0  0  0  0
   13.8365   -2.0185   28.6380 H   0  0  0  0  0  0  0  0  0  0  0  0
   12.8915   -4.0275   27.5894 H   0  0  0  0  0  0  0  0  0  0  0  0
   13.7933   -3.9773   26.1746 H   0  0  0  0  0  0  0  0  0  0  0  0
   13.7862   -1.3237   25.7825 H   0  0  0  0  0  0  0  0  0  0  0  0
   12.3413   -1.2406   24.9074 H   0  0  0  0  0  0  0  0  0  0  0  0
   11.9313   -4.4441   24.1141 H   0  0  0  0  0  0  0  0  0  0  0  0
   13.1622   -5.3338   21.9280 H   0  0  0  0  0  0  0  0  0  0  0  0
   15.2548   -3.8422   21.3575 H   0  0  0  0  0  0  0  0  0  0  0  0
    9.8557   -0.1715   26.3665 H   0  0  0  0  0  0  0  0  0  0  0  0
    9.9118   -1.7140   25.5187 H   0  0  0  0  0  0  0  0  0  0  0  0
    3.6155   -2.1587   27.6705 H   0  0  0  0  0  0  0  0  0  0  0  0
    1.1462   -2.0914   27.9529 H   0  0  0  0  0  0  0  0  0  0  0  0
    3.6754    2.1537   27.2728 H   0  0  0  0  0  0  0  0  0  0  0  0
   -0.8138    2.1326   28.5956 H   0  0  0  0  0  0  0  0  0  0  0  0
   -0.9451    1.9098   26.8326 H   0  0  0  0  0  0  0  0  0  0  0  0
  1  2  2  0
  2  3  1  0
  3  4  1  0
  4  5  1  0
  5  6  1  0
  6  7  2  0
  7  8  1  0
  8  9  2  0
  9 10  1  0
  4 11  1  0
 11 12  2  0
 11 13  1  0
 13 14  1  0
 14 15  1  0
 15 16  2  0
 16 17  1  0
 17 18  2  0
 18 19  1  0
 19 20  2  0
 20 21  1  0
 21 22  2  0
 22 23  1  0
 23 24  2  0
 23 25  1  0
 25 26  1  0
 26 27  1  0
 18 28  1  0
 10  6  1  0
 28 15  1  0
 24 19  1  0
 27 22  1  0
  1 29  1  0
  1 30  1  0
  2 31  1  0
  3 32  1  0
  3 33  1  0
  5 34  1  0
  5 35  1  0
  7 36  1  0
  8 37  1  0
  9 38  1  0
 13 39  1  0
 13 40  1  0
 20 41  1  0
 21 42  1  0
 24 43  1  0
 26 44  1  0
 26 45  1  0
M  END
>  <Energy>  (488) 
103.67064479050929

>  <compound_id>  (488) 
74273

>  <target_id>  (488) 
1

>  <reference_id>  (488) 
66

>  <inspiration_ids>  (488) 
[13, 66]

>  <energy_score>  (488) 
2.2002783934536296

>  <distance_score>  (488) 
6.255425586031595

>  <path>  (488) 
/opt/xchem-fragalysis-2/maxwin/BulkDock/SCRATCH/511017/C74273-P66/C74273-P66.minimised.mol

>  <scratch_subdir>  (488) 
/opt/xchem-fragalysis-2/maxwin/BulkDock/SCRATCH/511017/C74273-P66

>  <fragmenstein_runtime>  (488) 
11.099341869354248

>  <fragmenstein_outcome>  (488) 
too moved

>  <fragmenstein_mode>  (488) 
expansion

>  <fragmenstein_error>  (488) 


$$$$
C74276-P13
     RDKit          3D

 38 41  0  0  0  0  0  0  0  0999 V2000
   10.8171   -4.3798   25.1419 O   0  0  0  0  0  0  0  0  0  0  0  0
   10.9113   -3.2053   25.0162 C   0  0  0  0  0  0  0  0  0  0  0  0
   12.1552   -2.6430   24.1398 C   0  0  0  0  0  0  0  0  0  0  0  0
   12.6200   -3.1183   22.6519 C   0  0  0  0  0  0  0  0  0  0  0  0
   13.4893   -2.4232   21.7865 C   0  0  0  0  0  0  0  0  0  0  0  0
   13.7432   -3.0656   20.5226 C   0  0  0  0  0  0  0  0  0  0  0  0
   13.1067   -4.2775   20.4566 C   0  0  0  0  0  0  0  0  0  0  0  0
   12.2765   -4.6349   21.9237 S   0  0  0  0  0  0  0  0  0  0  0  0
   10.0448   -2.0133   25.6748 N   0  0  0  0  0  0  0  0  0  0  0  0
    8.9183   -2.0612   26.7314 C   0  0  0  0  0  0  0  0  0  0  0  0
    7.3295   -1.8258   26.6823 C   0  0  0  0  0  0  0  0  0  0  0  0
    6.4217   -0.6552   26.7216 C   0  0  0  0  0  0  0  0  0  0  0  0
    5.1256   -1.1169   27.0518 C   0  0  0  0  0  0  0  0  0  0  0  0
    3.6783   -0.6234   27.3409 C   0  0  0  0  0  0  0  0  0  0  0  0
    2.7114   -1.5216   27.9068 C   0  0  0  0  0  0  0  0  0  0  0  0
    1.3409   -1.1934   28.1206 C   0  0  0  0  0  0  0  0  0  0  0  0
    0.9067    0.0629   27.7749 C   0  0  0  0  0  0  0  0  0  0  0  0
    1.8018    0.9775   27.2735 C   0  0  0  0  0  0  0  0  0  0  0  0
    3.1711    0.6700   27.0499 C   0  0  0  0  0  0  0  0  0  0  0  0
    1.1697    2.1565   26.9668 O   0  0  0  0  0  0  0  0  0  0  0  0
   -0.2087    1.8560   27.3117 C   0  0  0  0  0  0  0  0  0  0  0  0
   -0.3723    0.5264   27.8391 O   0  0  0  0  0  0  0  0  0  0  0  0
    5.2653   -2.4803   27.1609 O   0  0  0  0  0  0  0  0  0  0  0  0
    6.5665   -2.8921   26.9998 N   0  0  0  0  0  0  0  0  0  0  0  0
   12.1944   -1.5543   24.2244 H   0  0  0  0  0  0  0  0  0  0  0  0
   13.0188   -2.9559   24.7519 H   0  0  0  0  0  0  0  0  0  0  0  0
   13.9013   -1.4580   22.0579 H   0  0  0  0  0  0  0  0  0  0  0  0
   14.3615   -2.6623   19.7314 H   0  0  0  0  0  0  0  0  0  0  0  0
   13.1122   -4.9926   19.6456 H   0  0  0  0  0  0  0  0  0  0  0  0
   10.3398   -1.1247   25.2893 H   0  0  0  0  0  0  0  0  0  0  0  0
    9.0508   -3.0534   27.1838 H   0  0  0  0  0  0  0  0  0  0  0  0
    9.2642   -1.3379   27.4821 H   0  0  0  0  0  0  0  0  0  0  0  0
    6.7106    0.3777   26.6041 H   0  0  0  0  0  0  0  0  0  0  0  0
    3.0230   -2.5337   28.1679 H   0  0  0  0  0  0  0  0  0  0  0  0
    0.6480   -1.9304   28.5119 H   0  0  0  0  0  0  0  0  0  0  0  0
    3.8146    1.4231   26.6049 H   0  0  0  0  0  0  0  0  0  0  0  0
   -0.5432    2.5788   28.0645 H   0  0  0  0  0  0  0  0  0  0  0  0
   -0.8283    1.9651   26.4148 H   0  0  0  0  0  0  0  0  0  0  0  0
  1  2  2  0
  2  3  1  0
  3  4  1  0
  4  5  2  0
  5  6  1  0
  6  7  2  0
  7  8  1  0
  2  9  1  0
  9 10  1  0
 10 11  1  0
 11 12  1  0
 12 13  2  0
 13 14  1  0
 14 15  2  0
 15 16  1  0
 16 17  2  0
 17 18  1  0
 18 19  2  0
 18 20  1  0
 20 21  1  0
 21 22  1  0
 13 23  1  0
 23 24  1  0
  8  4  1  0
 24 11  2  0
 19 14  1  0
 22 17  1  0
  3 25  1  0
  3 26  1  0
  5 27  1  0
  6 28  1  0
  7 29  1  0
  9 30  1  0
 10 31  1  0
 10 32  1  0
 12 33  1  0
 15 34  1  0
 16 35  1  0
 19 36  1  0
 21 37  1  0
 21 38  1  0
M  END
>  <Energy>  (489) 
119.9728680476295

>  <compound_id>  (489) 
74276

>  <target_id>  (489) 
1

>  <reference_id>  (489) 
13

>  <inspiration_ids>  (489) 
[13, 66]

>  <energy_score>  (489) 
31.73612056426208

>  <distance_score>  (489) 
5.208949255887735

>  <path>  (489) 
/opt/xchem-fragalysis-2/maxwin/BulkDock/SCRATCH/511017/C74276-P13/C74276-P13.minimised.mol

>  <scratch_subdir>  (489) 
/opt/xchem-fragalysis-2/maxwin/BulkDock/SCRATCH/511017/C74276-P13

>  <fragmenstein_runtime>  (489) 
6.452460527420044

>  <fragmenstein_outcome>  (489) 
too moved

>  <fragmenstein_mode>  (489) 
expansion

>  <fragmenstein_error>  (489) 


$$$$
C74276-P66
     RDKit          3D

 38 41  0  0  0  0  0  0  0  0999 V2000
    9.6182    3.5571   23.8713 O   0  0  0  0  0  0  0  0  0  0  0  0
    9.7348    2.4602   24.2867 C   0  0  0  0  0  0  0  0  0  0  0  0
   10.8425    1.4923   23.6902 C   0  0  0  0  0  0  0  0  0  0  0  0
   11.4773    1.8318   22.2901 C   0  0  0  0  0  0  0  0  0  0  0  0
   10.9965    2.5397   21.1933 C   0  0  0  0  0  0  0  0  0  0  0  0
   11.9749    2.7512   20.1595 C   0  0  0  0  0  0  0  0  0  0  0  0
   13.1689    2.1348   20.4580 C   0  0  0  0  0  0  0  0  0  0  0  0
   13.0879    1.2619   21.9381 S   0  0  0  0  0  0  0  0  0  0  0  0
    8.9964    1.7327   25.5000 N   0  0  0  0  0  0  0  0  0  0  0  0
    8.0280    2.2676   26.5049 C   0  0  0  0  0  0  0  0  0  0  0  0
    6.7011    1.5334   26.8019 C   0  0  0  0  0  0  0  0  0  0  0  0
    5.4012    2.1106   27.0840 C   0  0  0  0  0  0  0  0  0  0  0  0
    4.5049    1.0574   27.2476 C   0  0  0  0  0  0  0  0  0  0  0  0
    3.0053    0.9076   27.4232 C   0  0  0  0  0  0  0  0  0  0  0  0
    2.3775   -0.3369   27.7155 C   0  0  0  0  0  0  0  0  0  0  0  0
    0.9649   -0.4868   27.8039 C   0  0  0  0  0  0  0  0  0  0  0  0
    0.1701    0.6163   27.5796 C   0  0  0  0  0  0  0  0  0  0  0  0
    0.7445    1.8316   27.3049 C   0  0  0  0  0  0  0  0  0  0  0  0
    2.1328    2.0074   27.2364 C   0  0  0  0  0  0  0  0  0  0  0  0
   -0.1947    2.7931   27.0628 O   0  0  0  0  0  0  0  0  0  0  0  0
   -1.4198    2.0396   27.2052 C   0  0  0  0  0  0  0  0  0  0  0  0
   -1.1912    0.6533   27.5366 O   0  0  0  0  0  0  0  0  0  0  0  0
    5.2623   -0.0907   27.1789 O   0  0  0  0  0  0  0  0  0  0  0  0
    6.6152    0.2038   26.9414 N   0  0  0  0  0  0  0  0  0  0  0  0
   11.6522    1.4937   24.4321 H   0  0  0  0  0  0  0  0  0  0  0  0
   10.4535    0.4822   23.6423 H   0  0  0  0  0  0  0  0  0  0  0  0
    9.9985    2.9634   21.1635 H   0  0  0  0  0  0  0  0  0  0  0  0
   11.7966    3.3329   19.2637 H   0  0  0  0  0  0  0  0  0  0  0  0
   14.0812    2.1295   19.8776 H   0  0  0  0  0  0  0  0  0  0  0  0
    9.2756    0.7574   25.5336 H   0  0  0  0  0  0  0  0  0  0  0  0
    8.5878    2.3212   27.4458 H   0  0  0  0  0  0  0  0  0  0  0  0
    7.8025    3.2962   26.2018 H   0  0  0  0  0  0  0  0  0  0  0  0
    5.1551    3.1620   27.0914 H   0  0  0  0  0  0  0  0  0  0  0  0
    2.9958   -1.2276   27.8351 H   0  0  0  0  0  0  0  0  0  0  0  0
    0.5283   -1.4633   27.9857 H   0  0  0  0  0  0  0  0  0  0  0  0
    2.5226    2.9895   26.9873 H   0  0  0  0  0  0  0  0  0  0  0  0
   -2.0254    2.4964   27.9954 H   0  0  0  0  0  0  0  0  0  0  0  0
   -1.9740    2.0881   26.2608 H   0  0  0  0  0  0  0  0  0  0  0  0
  1  2  2  0
  2  3  1  0
  3  4  1  0
  4  5  2  0
  5  6  1  0
  6  7  2  0
  7  8  1  0
  2  9  1  0
  9 10  1  0
 10 11  1  0
 11 12  1  0
 12 13  2  0
 13 14  1  0
 14 15  2  0
 15 16  1  0
 16 17  2  0
 17 18  1  0
 18 19  2  0
 18 20  1  0
 20 21  1  0
 21 22  1  0
 13 23  1  0
 23 24  1  0
  8  4  1  0
 24 11  2  0
 19 14  1  0
 22 17  1  0
  3 25  1  0
  3 26  1  0
  5 27  1  0
  6 28  1  0
  7 29  1  0
  9 30  1  0
 10 31  1  0
 10 32  1  0
 12 33  1  0
 15 34  1  0
 16 35  1  0
 19 36  1  0
 21 37  1  0
 21 38  1  0
M  END
>  <Energy>  (490) 
66.859990670857357

>  <compound_id>  (490) 
74276

>  <target_id>  (490) 
1

>  <reference_id>  (490) 
66

>  <inspiration_ids>  (490) 
[13, 66]

>  <energy_score>  (490) 
-21.37675681250954

>  <distance_score>  (490) 
5.526076052142876

>  <path>  (490) 
/opt/xchem-fragalysis-2/maxwin/BulkDock/SCRATCH/511017/C74276-P66/C74276-P66.minimised.mol

>  <scratch_subdir>  (490) 
/opt/xchem-fragalysis-2/maxwin/BulkDock/SCRATCH/511017/C74276-P66

>  <fragmenstein_runtime>  (490) 
7.087527751922607

>  <fragmenstein_outcome>  (490) 
too moved

>  <fragmenstein_mode>  (490) 
expansion

>  <fragmenstein_error>  (490) 


$$$$
C74278-P13
     RDKit          3D

 45 48  0  0  0  0  0  0  0  0999 V2000
   12.7755    2.0660   25.4602 O   0  0  0  0  0  0  0  0  0  0  0  0
   12.3622    1.1536   24.8024 C   0  0  0  0  0  0  0  0  0  0  0  0
   10.9361    0.5425   25.0954 C   0  0  0  0  0  0  0  0  0  0  0  0
   10.0893    1.1253   26.0856 O   0  0  0  0  0  0  0  0  0  0  0  0
    9.0879    0.2112   26.5839 C   0  0  0  0  0  0  0  0  0  0  0  0
    7.6892    0.7634   26.7499 C   0  0  0  0  0  0  0  0  0  0  0  0
    6.4906    0.0124   26.9483 C   0  0  0  0  0  0  0  0  0  0  0  0
    5.4775    0.9436   27.0550 C   0  0  0  0  0  0  0  0  0  0  0  0
    4.0211    0.8958   27.2833 C   0  0  0  0  0  0  0  0  0  0  0  0
    3.3995   -0.2933   27.7429 C   0  0  0  0  0  0  0  0  0  0  0  0
    2.0138   -0.3637   27.9768 C   0  0  0  0  0  0  0  0  0  0  0  0
    1.2597    0.7627   27.7378 C   0  0  0  0  0  0  0  0  0  0  0  0
    1.8388    1.9213   27.2834 C   0  0  0  0  0  0  0  0  0  0  0  0
    3.2032    2.0202   27.0535 C   0  0  0  0  0  0  0  0  0  0  0  0
    0.9211    2.9061   27.0764 O   0  0  0  0  0  0  0  0  0  0  0  0
   -0.3008    2.2352   27.4572 C   0  0  0  0  0  0  0  0  0  0  0  0
   -0.0868    0.8746   27.8900 O   0  0  0  0  0  0  0  0  0  0  0  0
    6.0417    2.1828   26.9203 O   0  0  0  0  0  0  0  0  0  0  0  0
    7.4140    2.0741   26.7385 N   0  0  0  0  0  0  0  0  0  0  0  0
   12.9658    0.4375   23.6889 N   0  0  0  0  0  0  0  0  0  0  0  0
   14.2069    0.6666   22.9708 C   0  0  0  0  0  0  0  0  0  0  0  0
   15.0464   -0.5957   22.7015 C   0  0  0  0  0  0  0  0  0  0  0  0
   14.7722   -1.3455   21.4156 C   0  0  0  0  0  0  0  0  0  0  0  0
   15.1295   -1.0021   20.1233 C   0  0  0  0  0  0  0  0  0  0  0  0
   14.8149   -2.0220   19.1713 C   0  0  0  0  0  0  0  0  0  0  0  0
   14.2293   -3.1170   19.7641 C   0  0  0  0  0  0  0  0  0  0  0  0
   14.0915   -2.9237   21.4604 S   0  0  0  0  0  0  0  0  0  0  0  0
   10.3787    0.6177   24.1593 H   0  0  0  0  0  0  0  0  0  0  0  0
   11.1140   -0.5126   25.3401 H   0  0  0  0  0  0  0  0  0  0  0  0
    9.0153   -0.6676   25.9318 H   0  0  0  0  0  0  0  0  0  0  0  0
    9.4389   -0.1381   27.5617 H   0  0  0  0  0  0  0  0  0  0  0  0
    6.3934   -1.0617   26.9991 H   0  0  0  0  0  0  0  0  0  0  0  0
    3.9978   -1.1824   27.9300 H   0  0  0  0  0  0  0  0  0  0  0  0
    1.5468   -1.2789   28.3227 H   0  0  0  0  0  0  0  0  0  0  0  0
    3.6176    2.9555   26.6890 H   0  0  0  0  0  0  0  0  0  0  0  0
   -0.7686    2.7959   28.2741 H   0  0  0  0  0  0  0  0  0  0  0  0
   -0.9805    2.2280   26.5974 H   0  0  0  0  0  0  0  0  0  0  0  0
   12.2881   -0.2313   23.3146 H   0  0  0  0  0  0  0  0  0  0  0  0
   14.7923    1.3627   23.5820 H   0  0  0  0  0  0  0  0  0  0  0  0
   13.9524    1.1817   22.0390 H   0  0  0  0  0  0  0  0  0  0  0  0
   14.9781   -1.2711   23.5638 H   0  0  0  0  0  0  0  0  0  0  0  0
   16.0989   -0.2829   22.6501 H   0  0  0  0  0  0  0  0  0  0  0  0
   15.6174   -0.0682   19.8697 H   0  0  0  0  0  0  0  0  0  0  0  0
   15.0142   -1.9568   18.1085 H   0  0  0  0  0  0  0  0  0  0  0  0
   13.8878   -4.0298   19.2913 H   0  0  0  0  0  0  0  0  0  0  0  0
  1  2  2  0
  2  3  1  0
  3  4  1  0
  4  5  1  0
  5  6  1  0
  6  7  1  0
  7  8  2  0
  8  9  1  0
  9 10  2  0
 10 11  1  0
 11 12  2  0
 12 13  1  0
 13 14  2  0
 13 15  1  0
 15 16  1  0
 16 17  1  0
  8 18  1  0
 18 19  1  0
  2 20  1  0
 20 21  1  0
 21 22  1  0
 22 23  1  0
 23 24  2  0
 24 25  1  0
 25 26  2  0
 26 27  1  0
 19  6  2  0
 27 23  1  0
 14  9  1  0
 17 12  1  0
  3 28  1  0
  3 29  1  0
  5 30  1  0
  5 31  1  0
  7 32  1  0
 10 33  1  0
 11 34  1  0
 14 35  1  0
 16 36  1  0
 16 37  1  0
 20 38  1  0
 21 39  1  0
 21 40  1  0
 22 41  1  0
 22 42  1  0
 24 43  1  0
 25 44  1  0
 26 45  1  0
M  END
>  <Energy>  (491) 
84.458857190137721

>  <compound_id>  (491) 
74278

>  <target_id>  (491) 
1

>  <reference_id>  (491) 
13

>  <inspiration_ids>  (491) 
[13, 66]

>  <energy_score>  (491) 
-41.871993408514356

>  <distance_score>  (491) 
4.3718919857356076

>  <path>  (491) 
/opt/xchem-fragalysis-2/maxwin/BulkDock/SCRATCH/511017/C74278-P13/C74278-P13.minimised.mol

>  <scratch_subdir>  (491) 
/opt/xchem-fragalysis-2/maxwin/BulkDock/SCRATCH/511017/C74278-P13

>  <fragmenstein_runtime>  (491) 
10.487805843353271

>  <fragmenstein_outcome>  (491) 
too moved

>  <fragmenstein_mode>  (491) 
expansion

>  <fragmenstein_error>  (491) 


$$$$
C74278-P66
     RDKit          3D

 45 48  0  0  0  0  0  0  0  0999 V2000
   12.6498    1.9251   24.7326 O   0  0  0  0  0  0  0  0  0  0  0  0
   12.4652    0.7919   24.3843 C   0  0  0  0  0  0  0  0  0  0  0  0
   11.4934   -0.0944   25.2537 C   0  0  0  0  0  0  0  0  0  0  0  0
   10.1515    0.3887   25.3928 O   0  0  0  0  0  0  0  0  0  0  0  0
    9.4519   -0.2478   26.4874 C   0  0  0  0  0  0  0  0  0  0  0  0
    8.0571    0.2724   26.7515 C   0  0  0  0  0  0  0  0  0  0  0  0
    6.8499   -0.4723   26.9015 C   0  0  0  0  0  0  0  0  0  0  0  0
    5.8606    0.4587   27.1543 C   0  0  0  0  0  0  0  0  0  0  0  0
    4.3969    0.4227   27.3482 C   0  0  0  0  0  0  0  0  0  0  0  0
    3.6919   -0.8063   27.3057 C   0  0  0  0  0  0  0  0  0  0  0  0
    2.2943   -0.8685   27.4581 C   0  0  0  0  0  0  0  0  0  0  0  0
    1.6094    0.3120   27.6372 C   0  0  0  0  0  0  0  0  0  0  0  0
    2.2697    1.5150   27.6737 C   0  0  0  0  0  0  0  0  0  0  0  0
    3.6485    1.6018   27.5460 C   0  0  0  0  0  0  0  0  0  0  0  0
    1.4149    2.5656   27.8229 O   0  0  0  0  0  0  0  0  0  0  0  0
    0.1423    1.8861   27.8365 C   0  0  0  0  0  0  0  0  0  0  0  0
    0.2604    0.4512   27.7541 O   0  0  0  0  0  0  0  0  0  0  0  0
    6.4590    1.6885   27.2003 O   0  0  0  0  0  0  0  0  0  0  0  0
    7.8228    1.5742   26.9697 N   0  0  0  0  0  0  0  0  0  0  0  0
   13.0598    0.0265   23.3094 N   0  0  0  0  0  0  0  0  0  0  0  0
   13.9924    0.4179   22.2584 C   0  0  0  0  0  0  0  0  0  0  0  0
   14.9838   -0.6969   21.8530 C   0  0  0  0  0  0  0  0  0  0  0  0
   15.1766   -0.8885   20.3628 C   0  0  0  0  0  0  0  0  0  0  0  0
   15.4418    0.0453   19.3763 C   0  0  0  0  0  0  0  0  0  0  0  0
   15.4819   -0.5316   18.0690 C   0  0  0  0  0  0  0  0  0  0  0  0
   15.3080   -1.8963   18.1008 C   0  0  0  0  0  0  0  0  0  0  0  0
   15.1406   -2.4784   19.6993 S   0  0  0  0  0  0  0  0  0  0  0  0
   11.9679   -0.1411   26.2431 H   0  0  0  0  0  0  0  0  0  0  0  0
   11.4594   -1.1199   24.8749 H   0  0  0  0  0  0  0  0  0  0  0  0
   10.0371   -0.1129   27.4056 H   0  0  0  0  0  0  0  0  0  0  0  0
    9.3975   -1.3220   26.2734 H   0  0  0  0  0  0  0  0  0  0  0  0
    6.7199   -1.5387   26.7962 H   0  0  0  0  0  0  0  0  0  0  0  0
    4.2274   -1.7366   27.1182 H   0  0  0  0  0  0  0  0  0  0  0  0
    1.7706   -1.8157   27.3869 H   0  0  0  0  0  0  0  0  0  0  0  0
    4.1267    2.5758   27.5767 H   0  0  0  0  0  0  0  0  0  0  0  0
   -0.3815    2.1419   28.7646 H   0  0  0  0  0  0  0  0  0  0  0  0
   -0.4540    2.2389   26.9869 H   0  0  0  0  0  0  0  0  0  0  0  0
   12.6004   -0.8833   23.2542 H   0  0  0  0  0  0  0  0  0  0  0  0
   14.5386    1.2999   22.6111 H   0  0  0  0  0  0  0  0  0  0  0  0
   13.3747    0.7443   21.4192 H   0  0  0  0  0  0  0  0  0  0  0  0
   14.6765   -1.6455   22.3114 H   0  0  0  0  0  0  0  0  0  0  0  0
   15.9639   -0.4633   22.2895 H   0  0  0  0  0  0  0  0  0  0  0  0
   15.5565    1.1047   19.5745 H   0  0  0  0  0  0  0  0  0  0  0  0
   15.6387    0.0280   17.1550 H   0  0  0  0  0  0  0  0  0  0  0  0
   15.2997   -2.5859   17.2672 H   0  0  0  0  0  0  0  0  0  0  0  0
  1  2  2  0
  2  3  1  0
  3  4  1  0
  4  5  1  0
  5  6  1  0
  6  7  1  0
  7  8  2  0
  8  9  1  0
  9 10  2  0
 10 11  1  0
 11 12  2  0
 12 13  1  0
 13 14  2  0
 13 15  1  0
 15 16  1  0
 16 17  1  0
  8 18  1  0
 18 19  1  0
  2 20  1  0
 20 21  1  0
 21 22  1  0
 22 23  1  0
 23 24  2  0
 24 25  1  0
 25 26  2  0
 26 27  1  0
 19  6  2  0
 27 23  1  0
 14  9  1  0
 17 12  1  0
  3 28  1  0
  3 29  1  0
  5 30  1  0
  5 31  1  0
  7 32  1  0
 10 33  1  0
 11 34  1  0
 14 35  1  0
 16 36  1  0
 16 37  1  0
 20 38  1  0
 21 39  1  0
 21 40  1  0
 22 41  1  0
 22 42  1  0
 24 43  1  0
 25 44  1  0
 26 45  1  0
M  END
>  <Energy>  (492) 
84.280775043778092

>  <compound_id>  (492) 
74278

>  <target_id>  (492) 
1

>  <reference_id>  (492) 
66

>  <inspiration_ids>  (492) 
[13, 66]

>  <energy_score>  (492) 
-42.050075554873956

>  <distance_score>  (492) 
4.20788398083696

>  <path>  (492) 
/opt/xchem-fragalysis-2/maxwin/BulkDock/SCRATCH/511017/C74278-P66/C74278-P66.minimised.mol

>  <scratch_subdir>  (492) 
/opt/xchem-fragalysis-2/maxwin/BulkDock/SCRATCH/511017/C74278-P66

>  <fragmenstein_runtime>  (492) 
7.749420881271362

>  <fragmenstein_outcome>  (492) 
too moved

>  <fragmenstein_mode>  (492) 
expansion

>  <fragmenstein_error>  (492) 


$$$$
C74279-P13
     RDKit          3D

 33 37  0  0  0  0  0  0  0  0999 V2000
   14.0122   -2.8818   20.1472 C   0  0  0  0  0  0  0  0  0  0  0  0
   13.3582   -4.0874   20.0793 C   0  0  0  0  0  0  0  0  0  0  0  0
   12.5808   -4.4671   21.5720 S   0  0  0  0  0  0  0  0  0  0  0  0
   12.9619   -2.9547   22.3026 C   0  0  0  0  0  0  0  0  0  0  0  0
   12.3921   -2.4717   23.6254 C   0  0  0  0  0  0  0  0  0  0  0  0
   12.8883   -1.4197   24.2680 N   0  0  0  0  0  0  0  0  0  0  0  0
   11.9093   -0.9268   25.1959 N   0  0  0  0  0  0  0  0  0  0  0  0
   10.8107   -1.6839   25.1593 C   0  0  0  0  0  0  0  0  0  0  0  0
    9.1864   -1.0992   26.0187 C   0  0  0  0  0  0  0  0  0  0  0  0
    7.8882   -1.7055   26.4328 C   0  0  0  0  0  0  0  0  0  0  0  0
    6.9272   -0.6777   26.6635 C   0  0  0  0  0  0  0  0  0  0  0  0
    5.3347   -0.4968   26.9728 C   0  0  0  0  0  0  0  0  0  0  0  0
    4.4983   -1.5760   27.3938 C   0  0  0  0  0  0  0  0  0  0  0  0
    3.0798   -1.4535   27.6536 C   0  0  0  0  0  0  0  0  0  0  0  0
    2.4484   -0.2378   27.4784 C   0  0  0  0  0  0  0  0  0  0  0  0
    3.1940    0.8375   27.0715 C   0  0  0  0  0  0  0  0  0  0  0  0
    4.6042    0.7382   26.8244 C   0  0  0  0  0  0  0  0  0  0  0  0
    2.4003    1.9531   26.9386 O   0  0  0  0  0  0  0  0  0  0  0  0
    1.1121    1.4644   27.3983 C   0  0  0  0  0  0  0  0  0  0  0  0
    1.1235    0.0442   27.6484 O   0  0  0  0  0  0  0  0  0  0  0  0
    7.6820    0.4804   26.5674 O   0  0  0  0  0  0  0  0  0  0  0  0
    9.0365    0.2250   26.2598 N   0  0  0  0  0  0  0  0  0  0  0  0
   11.0934   -2.7821   24.2120 O   0  0  0  0  0  0  0  0  0  0  0  0
   13.8197   -2.2576   21.4353 C   0  0  0  0  0  0  0  0  0  0  0  0
   14.5995   -2.4644   19.3391 H   0  0  0  0  0  0  0  0  0  0  0  0
   13.3221   -4.7880   19.2549 H   0  0  0  0  0  0  0  0  0  0  0  0
    7.6682   -2.7598   26.4794 H   0  0  0  0  0  0  0  0  0  0  0  0
    4.9522   -2.5580   27.5296 H   0  0  0  0  0  0  0  0  0  0  0  0
    2.5127   -2.3218   27.9742 H   0  0  0  0  0  0  0  0  0  0  0  0
    5.1331    1.6292   26.4920 H   0  0  0  0  0  0  0  0  0  0  0  0
    0.8579    1.9836   28.3301 H   0  0  0  0  0  0  0  0  0  0  0  0
    0.3489    1.6995   26.6500 H   0  0  0  0  0  0  0  0  0  0  0  0
   14.2245   -1.2865   21.6998 H   0  0  0  0  0  0  0  0  0  0  0  0
  1  2  2  0
  2  3  1  0
  3  4  1  0
  4  5  1  0
  5  6  2  0
  6  7  1  0
  7  8  2  0
  8  9  1  0
  9 10  1  0
 10 11  2  0
 11 12  1  0
 12 13  2  0
 13 14  1  0
 14 15  2  0
 15 16  1  0
 16 17  2  0
 16 18  1  0
 18 19  1  0
 19 20  1  0
 11 21  1  0
 21 22  1  0
  8 23  1  0
  4 24  2  0
 24  1  1  0
 23  5  1  0
 22  9  2  0
 17 12  1  0
 20 15  1  0
  1 25  1  0
  2 26  1  0
 10 27  1  0
 13 28  1  0
 14 29  1  0
 17 30  1  0
 19 31  1  0
 19 32  1  0
 24 33  1  0
M  END
>  <Energy>  (493) 
134.68642166993544

>  <compound_id>  (493) 
74279

>  <target_id>  (493) 
1

>  <reference_id>  (493) 
13

>  <inspiration_ids>  (493) 
[13, 66]

>  <energy_score>  (493) 
28.27510978975937

>  <distance_score>  (493) 
5.513509985668109

>  <path>  (493) 
/opt/xchem-fragalysis-2/maxwin/BulkDock/SCRATCH/511017/C74279-P13/C74279-P13.minimised.mol

>  <scratch_subdir>  (493) 
/opt/xchem-fragalysis-2/maxwin/BulkDock/SCRATCH/511017/C74279-P13

>  <fragmenstein_runtime>  (493) 
3.1903724670410156

>  <fragmenstein_outcome>  (493) 
too moved

>  <fragmenstein_mode>  (493) 
expansion

>  <fragmenstein_error>  (493) 


$$$$
C74279-P66
     RDKit          3D

 33 37  0  0  0  0  0  0  0  0999 V2000
   14.9694    0.6845   19.6677 C   0  0  0  0  0  0  0  0  0  0  0  0
   15.1687   -0.6319   20.0139 C   0  0  0  0  0  0  0  0  0  0  0  0
   14.5280   -0.9494   21.5768 S   0  0  0  0  0  0  0  0  0  0  0  0
   13.5938    0.5160   21.6322 C   0  0  0  0  0  0  0  0  0  0  0  0
   12.5089    0.8989   22.6135 C   0  0  0  0  0  0  0  0  0  0  0  0
   12.1978    2.1764   22.7437 N   0  0  0  0  0  0  0  0  0  0  0  0
   11.2136    2.3365   23.7394 N   0  0  0  0  0  0  0  0  0  0  0  0
   10.7942    1.1498   24.1743 C   0  0  0  0  0  0  0  0  0  0  0  0
    9.2975    1.1392   25.3758 C   0  0  0  0  0  0  0  0  0  0  0  0
    8.3015    0.1524   25.9131 C   0  0  0  0  0  0  0  0  0  0  0  0
    7.1861    0.8847   26.4652 C   0  0  0  0  0  0  0  0  0  0  0  0
    5.5914    0.7004   26.8867 C   0  0  0  0  0  0  0  0  0  0  0  0
    4.8950   -0.5456   26.8521 C   0  0  0  0  0  0  0  0  0  0  0  0
    3.4601   -0.6979   27.0188 C   0  0  0  0  0  0  0  0  0  0  0  0
    2.6699    0.4149   27.2155 C   0  0  0  0  0  0  0  0  0  0  0  0
    3.2793    1.6408   27.2762 C   0  0  0  0  0  0  0  0  0  0  0  0
    4.7012    1.8034   27.1548 C   0  0  0  0  0  0  0  0  0  0  0  0
    2.3462    2.6420   27.4066 O   0  0  0  0  0  0  0  0  0  0  0  0
    1.1022    1.8979   27.3744 C   0  0  0  0  0  0  0  0  0  0  0  0
    1.3096    0.4728   27.3264 O   0  0  0  0  0  0  0  0  0  0  0  0
    7.6458    2.1915   26.4781 O   0  0  0  0  0  0  0  0  0  0  0  0
    8.8765    2.3437   25.8266 N   0  0  0  0  0  0  0  0  0  0  0  0
   11.6157    0.1397   23.4702 O   0  0  0  0  0  0  0  0  0  0  0  0
   14.1051    1.3506   20.6189 C   0  0  0  0  0  0  0  0  0  0  0  0
   15.3804    1.1509   18.7808 H   0  0  0  0  0  0  0  0  0  0  0  0
   15.7549   -1.3813   19.5000 H   0  0  0  0  0  0  0  0  0  0  0  0
    8.3061   -0.9108   25.7269 H   0  0  0  0  0  0  0  0  0  0  0  0
    5.4661   -1.4453   26.6290 H   0  0  0  0  0  0  0  0  0  0  0  0
    3.0159   -1.6853   26.9232 H   0  0  0  0  0  0  0  0  0  0  0  0
    5.1058    2.8133   27.1884 H   0  0  0  0  0  0  0  0  0  0  0  0
    0.5279    2.1409   28.2751 H   0  0  0  0  0  0  0  0  0  0  0  0
    0.5304    2.2065   26.4916 H   0  0  0  0  0  0  0  0  0  0  0  0
   13.7767    2.3786   20.5031 H   0  0  0  0  0  0  0  0  0  0  0  0
  1  2  2  0
  2  3  1  0
  3  4  1  0
  4  5  1  0
  5  6  2  0
  6  7  1  0
  7  8  2  0
  8  9  1  0
  9 10  1  0
 10 11  2  0
 11 12  1  0
 12 13  2  0
 13 14  1  0
 14 15  2  0
 15 16  1  0
 16 17  2  0
 16 18  1  0
 18 19  1  0
 19 20  1  0
 11 21  1  0
 21 22  1  0
  8 23  1  0
  4 24  2  0
 24  1  1  0
 23  5  1  0
 22  9  2  0
 17 12  1  0
 20 15  1  0
  1 25  1  0
  2 26  1  0
 10 27  1  0
 13 28  1  0
 14 29  1  0
 17 30  1  0
 19 31  1  0
 19 32  1  0
 24 33  1  0
M  END
>  <Energy>  (494) 
140.87298838839888

>  <compound_id>  (494) 
74279

>  <target_id>  (494) 
1

>  <reference_id>  (494) 
66

>  <inspiration_ids>  (494) 
[13, 66]

>  <energy_score>  (494) 
34.46167650822133

>  <distance_score>  (494) 
5.488073725572915

>  <path>  (494) 
/opt/xchem-fragalysis-2/maxwin/BulkDock/SCRATCH/511017/C74279-P66/C74279-P66.minimised.mol

>  <scratch_subdir>  (494) 
/opt/xchem-fragalysis-2/maxwin/BulkDock/SCRATCH/511017/C74279-P66

>  <fragmenstein_runtime>  (494) 
3.6834514141082764

>  <fragmenstein_outcome>  (494) 
too moved

>  <fragmenstein_mode>  (494) 
expansion

>  <fragmenstein_error>  (494) 


$$$$
C74281-P13
     RDKit          3D

 42 45  0  0  0  0  0  0  0  0999 V2000
   12.1742   -0.9390   25.5040 O   0  0  0  0  0  0  0  0  0  0  0  0
   11.6301   -1.8714   25.0222 C   0  0  0  0  0  0  0  0  0  0  0  0
   10.2202   -2.3399   25.7321 C   0  0  0  0  0  0  0  0  0  0  0  0
    9.0559   -1.4514   25.8511 O   0  0  0  0  0  0  0  0  0  0  0  0
    8.1866   -1.6946   27.0183 C   0  0  0  0  0  0  0  0  0  0  0  0
    6.6173   -1.5251   26.9433 C   0  0  0  0  0  0  0  0  0  0  0  0
    5.7173   -0.3853   27.1123 C   0  0  0  0  0  0  0  0  0  0  0  0
    4.4219   -0.8992   27.2727 C   0  0  0  0  0  0  0  0  0  0  0  0
    2.9934   -0.4355   27.5393 C   0  0  0  0  0  0  0  0  0  0  0  0
    2.0199   -1.3553   28.0434 C   0  0  0  0  0  0  0  0  0  0  0  0
    0.6428   -1.0420   28.1816 C   0  0  0  0  0  0  0  0  0  0  0  0
    0.2229    0.2153   27.8206 C   0  0  0  0  0  0  0  0  0  0  0  0
    1.1338    1.1474   27.3846 C   0  0  0  0  0  0  0  0  0  0  0  0
    2.5089    0.8608   27.2468 C   0  0  0  0  0  0  0  0  0  0  0  0
    0.5126    2.3165   27.0347 O   0  0  0  0  0  0  0  0  0  0  0  0
   -0.8817    1.9900   27.2682 C   0  0  0  0  0  0  0  0  0  0  0  0
   -1.0614    0.6661   27.8072 O   0  0  0  0  0  0  0  0  0  0  0  0
    4.5498   -2.2607   27.1375 O   0  0  0  0  0  0  0  0  0  0  0  0
    5.8645   -2.6399   26.9652 N   0  0  0  0  0  0  0  0  0  0  0  0
   12.0920   -2.8380   23.8383 N   0  0  0  0  0  0  0  0  0  0  0  0
   13.3802   -2.8935   23.0785 C   0  0  0  0  0  0  0  0  0  0  0  0
   13.4559   -3.0576   21.5171 C   0  0  0  0  0  0  0  0  0  0  0  0
   14.0697   -2.2220   20.5696 C   0  0  0  0  0  0  0  0  0  0  0  0
   14.0055   -2.7076   19.2120 C   0  0  0  0  0  0  0  0  0  0  0  0
   13.4327   -3.9538   19.1597 C   0  0  0  0  0  0  0  0  0  0  0  0
   13.0583   -4.5420   20.7350 S   0  0  0  0  0  0  0  0  0  0  0  0
   10.5402   -2.5841   26.7551 H   0  0  0  0  0  0  0  0  0  0  0  0
    9.9123   -3.2883   25.2910 H   0  0  0  0  0  0  0  0  0  0  0  0
    8.3719   -2.7185   27.3691 H   0  0  0  0  0  0  0  0  0  0  0  0
    8.5409   -1.0159   27.8031 H   0  0  0  0  0  0  0  0  0  0  0  0
    6.0054    0.6521   27.1880 H   0  0  0  0  0  0  0  0  0  0  0  0
    2.3307   -2.3686   28.2979 H   0  0  0  0  0  0  0  0  0  0  0  0
   -0.0693   -1.7892   28.5151 H   0  0  0  0  0  0  0  0  0  0  0  0
    3.1719    1.6210   26.8449 H   0  0  0  0  0  0  0  0  0  0  0  0
   -1.2967    2.7192   27.9726 H   0  0  0  0  0  0  0  0  0  0  0  0
   -1.4235    2.0644   26.3184 H   0  0  0  0  0  0  0  0  0  0  0  0
   11.4224   -3.5872   23.7313 H   0  0  0  0  0  0  0  0  0  0  0  0
   13.9187   -1.9749   23.3405 H   0  0  0  0  0  0  0  0  0  0  0  0
   13.9426   -3.7234   23.5232 H   0  0  0  0  0  0  0  0  0  0  0  0
   14.5080   -1.2696   20.8465 H   0  0  0  0  0  0  0  0  0  0  0  0
   14.3843   -2.1798   18.3464 H   0  0  0  0  0  0  0  0  0  0  0  0
   13.2676   -4.5841   18.2963 H   0  0  0  0  0  0  0  0  0  0  0  0
  1  2  2  0
  2  3  1  0
  3  4  1  0
  4  5  1  0
  5  6  1  0
  6  7  1  0
  7  8  2  0
  8  9  1  0
  9 10  2  0
 10 11  1  0
 11 12  2  0
 12 13  1  0
 13 14  2  0
 13 15  1  0
 15 16  1  0
 16 17  1  0
  8 18  1  0
 18 19  1  0
  2 20  1  0
 20 21  1  0
 21 22  1  0
 22 23  2  0
 23 24  1  0
 24 25  2  0
 25 26  1  0
 19  6  2  0
 26 22  1  0
 14  9  1  0
 17 12  1  0
  3 27  1  0
  3 28  1  0
  5 29  1  0
  5 30  1  0
  7 31  1  0
 10 32  1  0
 11 33  1  0
 14 34  1  0
 16 35  1  0
 16 36  1  0
 20 37  1  0
 21 38  1  0
 21 39  1  0
 23 40  1  0
 24 41  1  0
 25 42  1  0
M  END
>  <Energy>  (495) 
107.24857526382532

>  <compound_id>  (495) 
74281

>  <target_id>  (495) 
1

>  <reference_id>  (495) 
13

>  <inspiration_ids>  (495) 
[13, 66]

>  <energy_score>  (495) 
-7.818704474814297

>  <distance_score>  (495) 
4.255199697995981

>  <path>  (495) 
/opt/xchem-fragalysis-2/maxwin/BulkDock/SCRATCH/511017/C74281-P13/C74281-P13.minimised.mol

>  <scratch_subdir>  (495) 
/opt/xchem-fragalysis-2/maxwin/BulkDock/SCRATCH/511017/C74281-P13

>  <fragmenstein_runtime>  (495) 
7.545313358306885

>  <fragmenstein_outcome>  (495) 
too moved

>  <fragmenstein_mode>  (495) 
expansion

>  <fragmenstein_error>  (495) 


$$$$
C74281-P66
     RDKit          3D

 42 45  0  0  0  0  0  0  0  0999 V2000
   12.7113   -0.6088   25.3381 O   0  0  0  0  0  0  0  0  0  0  0  0
   12.3149   -0.0352   24.3848 C   0  0  0  0  0  0  0  0  0  0  0  0
   10.8633    0.7587   24.5398 C   0  0  0  0  0  0  0  0  0  0  0  0
    9.7388    0.1601   25.2826 O   0  0  0  0  0  0  0  0  0  0  0  0
    8.8863    1.0593   26.1005 C   0  0  0  0  0  0  0  0  0  0  0  0
    7.4417    0.5764   26.5739 C   0  0  0  0  0  0  0  0  0  0  0  0
    6.2193    1.3498   26.8212 C   0  0  0  0  0  0  0  0  0  0  0  0
    5.1853    0.4467   27.1002 C   0  0  0  0  0  0  0  0  0  0  0  0
    3.6579    0.4720   27.3180 C   0  0  0  0  0  0  0  0  0  0  0  0
    2.9083   -0.7130   27.5905 C   0  0  0  0  0  0  0  0  0  0  0  0
    1.4870   -0.7347   27.7226 C   0  0  0  0  0  0  0  0  0  0  0  0
    0.7902    0.4427   27.5656 C   0  0  0  0  0  0  0  0  0  0  0  0
    1.4721    1.6065   27.3085 C   0  0  0  0  0  0  0  0  0  0  0  0
    2.8783    1.6532   27.1966 C   0  0  0  0  0  0  0  0  0  0  0  0
    0.6137    2.6572   27.1269 O   0  0  0  0  0  0  0  0  0  0  0  0
   -0.6726    2.0134   27.2850 C   0  0  0  0  0  0  0  0  0  0  0  0
   -0.5639    0.6033   27.5665 O   0  0  0  0  0  0  0  0  0  0  0  0
    5.7996   -0.7883   27.1438 O   0  0  0  0  0  0  0  0  0  0  0  0
    7.1686   -0.7042   26.8565 N   0  0  0  0  0  0  0  0  0  0  0  0
   12.9781    0.1548   22.9439 N   0  0  0  0  0  0  0  0  0  0  0  0
   14.3351   -0.2583   22.4306 C   0  0  0  0  0  0  0  0  0  0  0  0
   14.5859   -0.6756   20.9211 C   0  0  0  0  0  0  0  0  0  0  0  0
   14.9874    0.0869   19.8162 C   0  0  0  0  0  0  0  0  0  0  0  0
   15.0789   -0.6607   18.5783 C   0  0  0  0  0  0  0  0  0  0  0  0
   14.8899   -2.0064   18.7814 C   0  0  0  0  0  0  0  0  0  0  0  0
   14.7246   -2.3606   20.4559 S   0  0  0  0  0  0  0  0  0  0  0  0
   10.5063    0.9871   23.5319 H   0  0  0  0  0  0  0  0  0  0  0  0
   11.1217    1.7074   25.0259 H   0  0  0  0  0  0  0  0  0  0  0  0
    9.4576    1.2971   27.0048 H   0  0  0  0  0  0  0  0  0  0  0  0
    8.7437    1.9824   25.5284 H   0  0  0  0  0  0  0  0  0  0  0  0
    6.1151    2.4185   26.7200 H   0  0  0  0  0  0  0  0  0  0  0  0
    3.4385   -1.6653   27.6570 H   0  0  0  0  0  0  0  0  0  0  0  0
    0.9695   -1.6746   27.8828 H   0  0  0  0  0  0  0  0  0  0  0  0
    3.3521    2.6031   26.9713 H   0  0  0  0  0  0  0  0  0  0  0  0
   -1.2081    2.4978   28.1093 H   0  0  0  0  0  0  0  0  0  0  0  0
   -1.2473    2.1461   26.3613 H   0  0  0  0  0  0  0  0  0  0  0  0
   12.4069    0.7712   22.3870 H   0  0  0  0  0  0  0  0  0  0  0  0
   14.6741   -1.0709   23.0834 H   0  0  0  0  0  0  0  0  0  0  0  0
   14.9868    0.6000   22.6339 H   0  0  0  0  0  0  0  0  0  0  0  0
   15.1245    1.1606   19.8746 H   0  0  0  0  0  0  0  0  0  0  0  0
   15.2951   -0.2208   17.6126 H   0  0  0  0  0  0  0  0  0  0  0  0
   14.9204   -2.8088   18.0563 H   0  0  0  0  0  0  0  0  0  0  0  0
  1  2  2  0
  2  3  1  0
  3  4  1  0
  4  5  1  0
  5  6  1  0
  6  7  1  0
  7  8  2  0
  8  9  1  0
  9 10  2  0
 10 11  1  0
 11 12  2  0
 12 13  1  0
 13 14  2  0
 13 15  1  0
 15 16  1  0
 16 17  1  0
  8 18  1  0
 18 19  1  0
  2 20  1  0
 20 21  1  0
 21 22  1  0
 22 23  2  0
 23 24  1  0
 24 25  2  0
 25 26  1  0
 19  6  2  0
 26 22  1  0
 14  9  1  0
 17 12  1  0
  3 27  1  0
  3 28  1  0
  5 29  1  0
  5 30  1  0
  7 31  1  0
 10 32  1  0
 11 33  1  0
 14 34  1  0
 16 35  1  0
 16 36  1  0
 20 37  1  0
 21 38  1  0
 21 39  1  0
 23 40  1  0
 24 41  1  0
 25 42  1  0
M  END
>  <Energy>  (496) 
111.93320398327509

>  <compound_id>  (496) 
74281

>  <target_id>  (496) 
1

>  <reference_id>  (496) 
66

>  <inspiration_ids>  (496) 
[13, 66]

>  <energy_score>  (496) 
-3.134075755364961

>  <distance_score>  (496) 
4.099420452096451

>  <path>  (496) 
/opt/xchem-fragalysis-2/maxwin/BulkDock/SCRATCH/511017/C74281-P66/C74281-P66.minimised.mol

>  <scratch_subdir>  (496) 
/opt/xchem-fragalysis-2/maxwin/BulkDock/SCRATCH/511017/C74281-P66

>  <fragmenstein_runtime>  (496) 
5.062662124633789

>  <fragmenstein_outcome>  (496) 
too moved

>  <fragmenstein_mode>  (496) 
expansion

>  <fragmenstein_error>  (496) 


$$$$
C74282-P13
     RDKit          3D

 38 41  0  0  0  0  0  0  0  0999 V2000
    9.6553   -3.5658   26.3986 O   0  0  0  0  0  0  0  0  0  0  0  0
    9.9466   -2.6091   25.7611 C   0  0  0  0  0  0  0  0  0  0  0  0
    9.2761   -1.2072   26.1624 C   0  0  0  0  0  0  0  0  0  0  0  0
    7.7235   -0.8807   26.4229 C   0  0  0  0  0  0  0  0  0  0  0  0
    6.4740   -1.5613   26.7937 C   0  0  0  0  0  0  0  0  0  0  0  0
    5.4570   -0.5807   26.9165 C   0  0  0  0  0  0  0  0  0  0  0  0
    3.9417   -0.4291   27.2507 C   0  0  0  0  0  0  0  0  0  0  0  0
    3.1474   -1.4803   27.7826 C   0  0  0  0  0  0  0  0  0  0  0  0
    1.7448   -1.3429   28.0532 C   0  0  0  0  0  0  0  0  0  0  0  0
    1.1140   -0.1439   27.7847 C   0  0  0  0  0  0  0  0  0  0  0  0
    1.8444    0.9073   27.2991 C   0  0  0  0  0  0  0  0  0  0  0  0
    3.2280    0.7947   27.0330 C   0  0  0  0  0  0  0  0  0  0  0  0
    1.0518    2.0009   27.0656 O   0  0  0  0  0  0  0  0  0  0  0  0
   -0.2566    1.4991   27.4375 C   0  0  0  0  0  0  0  0  0  0  0  0
   -0.2129    0.1384   27.9153 O   0  0  0  0  0  0  0  0  0  0  0  0
    6.0890    0.6079   26.6453 O   0  0  0  0  0  0  0  0  0  0  0  0
    7.4302    0.4359   26.3764 N   0  0  0  0  0  0  0  0  0  0  0  0
   11.0266   -2.4371   24.5685 N   0  0  0  0  0  0  0  0  0  0  0  0
   12.0265   -3.4160   24.0090 C   0  0  0  0  0  0  0  0  0  0  0  0
   12.5805   -3.3656   22.4990 C   0  0  0  0  0  0  0  0  0  0  0  0
   13.4292   -2.4750   21.8292 C   0  0  0  0  0  0  0  0  0  0  0  0
   13.8122   -2.8846   20.4924 C   0  0  0  0  0  0  0  0  0  0  0  0
   13.2755   -4.1033   20.1630 C   0  0  0  0  0  0  0  0  0  0  0  0
   12.4396   -4.7878   21.4976 S   0  0  0  0  0  0  0  0  0  0  0  0
    9.6520   -0.4405   25.4750 H   0  0  0  0  0  0  0  0  0  0  0  0
    9.7554   -0.9678   27.1248 H   0  0  0  0  0  0  0  0  0  0  0  0
    6.3561   -2.6257   26.9345 H   0  0  0  0  0  0  0  0  0  0  0  0
    3.6161   -2.4423   27.9856 H   0  0  0  0  0  0  0  0  0  0  0  0
    1.1762   -2.1834   28.4375 H   0  0  0  0  0  0  0  0  0  0  0  0
    3.7460    1.6568   26.6184 H   0  0  0  0  0  0  0  0  0  0  0  0
   -0.9193    1.5523   26.5670 H   0  0  0  0  0  0  0  0  0  0  0  0
   -0.6611    2.1377   28.2307 H   0  0  0  0  0  0  0  0  0  0  0  0
   10.9644   -1.4961   24.1824 H   0  0  0  0  0  0  0  0  0  0  0  0
   12.9109   -3.3021   24.6485 H   0  0  0  0  0  0  0  0  0  0  0  0
   11.6261   -4.4136   24.2147 H   0  0  0  0  0  0  0  0  0  0  0  0
   13.7608   -1.5503   22.2878 H   0  0  0  0  0  0  0  0  0  0  0  0
   14.4435   -2.3052   19.8310 H   0  0  0  0  0  0  0  0  0  0  0  0
   13.3783   -4.6620   19.2416 H   0  0  0  0  0  0  0  0  0  0  0  0
  1  2  2  0
  2  3  1  0
  3  4  1  0
  4  5  1  0
  5  6  2  0
  6  7  1  0
  7  8  2  0
  8  9  1  0
  9 10  2  0
 10 11  1  0
 11 12  2  0
 11 13  1  0
 13 14  1  0
 14 15  1  0
  6 16  1  0
 16 17  1  0
  2 18  1  0
 18 19  1  0
 19 20  1  0
 20 21  2  0
 21 22  1  0
 22 23  2  0
 23 24  1  0
 17  4  2  0
 24 20  1  0
 12  7  1  0
 15 10  1  0
  3 25  1  0
  3 26  1  0
  5 27  1  0
  8 28  1  0
  9 29  1  0
 12 30  1  0
 14 31  1  0
 14 32  1  0
 18 33  1  0
 19 34  1  0
 19 35  1  0
 21 36  1  0
 22 37  1  0
 23 38  1  0
M  END
>  <Energy>  (497) 
83.563636327817818

>  <compound_id>  (497) 
74282

>  <target_id>  (497) 
1

>  <reference_id>  (497) 
13

>  <inspiration_ids>  (497) 
[13, 66]

>  <energy_score>  (497) 
24.16420257070132

>  <distance_score>  (497) 
5.226114122182394

>  <path>  (497) 
/opt/xchem-fragalysis-2/maxwin/BulkDock/SCRATCH/511017/C74282-P13/C74282-P13.minimised.mol

>  <scratch_subdir>  (497) 
/opt/xchem-fragalysis-2/maxwin/BulkDock/SCRATCH/511017/C74282-P13

>  <fragmenstein_runtime>  (497) 
5.091871023178101

>  <fragmenstein_outcome>  (497) 
too moved

>  <fragmenstein_mode>  (497) 
expansion

>  <fragmenstein_error>  (497) 


$$$$
C74282-P66
     RDKit          3D

 38 41  0  0  0  0  0  0  0  0999 V2000
   10.6866   -2.9971   26.6934 O   0  0  0  0  0  0  0  0  0  0  0  0
   10.8669   -2.2154   25.8135 C   0  0  0  0  0  0  0  0  0  0  0  0
   10.0339   -0.8177   25.8792 C   0  0  0  0  0  0  0  0  0  0  0  0
    8.4914   -0.5357   26.3758 C   0  0  0  0  0  0  0  0  0  0  0  0
    7.2788   -1.2532   26.8037 C   0  0  0  0  0  0  0  0  0  0  0  0
    6.2098   -0.3207   26.9543 C   0  0  0  0  0  0  0  0  0  0  0  0
    4.6375   -0.2385   27.2184 C   0  0  0  0  0  0  0  0  0  0  0  0
    3.8065   -1.3775   27.4068 C   0  0  0  0  0  0  0  0  0  0  0  0
    2.3737   -1.3174   27.5499 C   0  0  0  0  0  0  0  0  0  0  0  0
    1.7353   -0.0957   27.5068 C   0  0  0  0  0  0  0  0  0  0  0  0
    2.4860    1.0383   27.3386 C   0  0  0  0  0  0  0  0  0  0  0  0
    3.9026    0.9961   27.2131 C   0  0  0  0  0  0  0  0  0  0  0  0
    1.6888    2.1534   27.2748 O   0  0  0  0  0  0  0  0  0  0  0  0
    0.3667    1.5792   27.4118 C   0  0  0  0  0  0  0  0  0  0  0  0
    0.3927    0.1460   27.5680 O   0  0  0  0  0  0  0  0  0  0  0  0
    6.8155    0.8994   26.7398 O   0  0  0  0  0  0  0  0  0  0  0  0
    8.1549    0.7750   26.3984 N   0  0  0  0  0  0  0  0  0  0  0  0
   11.9198   -2.2584   24.5625 N   0  0  0  0  0  0  0  0  0  0  0  0
   12.9012   -3.3705   24.1166 C   0  0  0  0  0  0  0  0  0  0  0  0
   13.5438   -3.4645   22.6037 C   0  0  0  0  0  0  0  0  0  0  0  0
   14.4411   -2.6441   21.8924 C   0  0  0  0  0  0  0  0  0  0  0  0
   14.5596   -2.9606   20.4801 C   0  0  0  0  0  0  0  0  0  0  0  0
   13.8485   -4.0874   20.1459 C   0  0  0  0  0  0  0  0  0  0  0  0
   13.1104   -4.7813   21.5280 S   0  0  0  0  0  0  0  0  0  0  0  0
   10.1467   -0.2865   24.9312 H   0  0  0  0  0  0  0  0  0  0  0  0
   10.6293   -0.2281   26.5955 H   0  0  0  0  0  0  0  0  0  0  0  0
    7.2074   -2.3201   26.9215 H   0  0  0  0  0  0  0  0  0  0  0  0
    4.2718   -2.3607   27.4039 H   0  0  0  0  0  0  0  0  0  0  0  0
    1.8033   -2.2360   27.6415 H   0  0  0  0  0  0  0  0  0  0  0  0
    4.4357    1.9330   27.0773 H   0  0  0  0  0  0  0  0  0  0  0  0
   -0.2208    1.8320   26.5223 H   0  0  0  0  0  0  0  0  0  0  0  0
   -0.1155    2.0203   28.2915 H   0  0  0  0  0  0  0  0  0  0  0  0
   11.8682   -1.3906   24.0427 H   0  0  0  0  0  0  0  0  0  0  0  0
   13.7552   -3.2832   24.7984 H   0  0  0  0  0  0  0  0  0  0  0  0
   12.3999   -4.3192   24.3383 H   0  0  0  0  0  0  0  0  0  0  0  0
   14.8952   -1.7722   22.3467 H   0  0  0  0  0  0  0  0  0  0  0  0
   15.1399   -2.3798   19.7751 H   0  0  0  0  0  0  0  0  0  0  0  0
   13.7457   -4.5583   19.1775 H   0  0  0  0  0  0  0  0  0  0  0  0
  1  2  2  0
  2  3  1  0
  3  4  1  0
  4  5  1  0
  5  6  2  0
  6  7  1  0
  7  8  2  0
  8  9  1  0
  9 10  2  0
 10 11  1  0
 11 12  2  0
 11 13  1  0
 13 14  1  0
 14 15  1  0
  6 16  1  0
 16 17  1  0
  2 18  1  0
 18 19  1  0
 19 20  1  0
 20 21  2  0
 21 22  1  0
 22 23  2  0
 23 24  1  0
 17  4  2  0
 24 20  1  0
 12  7  1  0
 15 10  1  0
  3 25  1  0
  3 26  1  0
  5 27  1  0
  8 28  1  0
  9 29  1  0
 12 30  1  0
 14 31  1  0
 14 32  1  0
 18 33  1  0
 19 34  1  0
 19 35  1  0
 21 36  1  0
 22 37  1  0
 23 38  1  0
M  END
>  <Energy>  (498) 
102.26398969995023

>  <compound_id>  (498) 
74282

>  <target_id>  (498) 
1

>  <reference_id>  (498) 
66

>  <inspiration_ids>  (498) 
[13, 66]

>  <energy_score>  (498) 
42.86455594283234

>  <distance_score>  (498) 
5.452760717469759

>  <path>  (498) 
/opt/xchem-fragalysis-2/maxwin/BulkDock/SCRATCH/511017/C74282-P66/C74282-P66.minimised.mol

>  <scratch_subdir>  (498) 
/opt/xchem-fragalysis-2/maxwin/BulkDock/SCRATCH/511017/C74282-P66

>  <fragmenstein_runtime>  (498) 
6.688620328903198

>  <fragmenstein_outcome>  (498) 
too moved

>  <fragmenstein_mode>  (498) 
expansion

>  <fragmenstein_error>  (498) 


$$$$
C74289-P13
     RDKit          3D

 39 42  0  0  0  0  0  0  0  0999 V2000
    4.2483   -4.8195   25.9772 O   0  0  0  0  0  0  0  0  0  0  0  0
    4.9551   -3.9117   25.6477 C   0  0  0  0  0  0  0  0  0  0  0  0
    5.2080   -2.6550   26.2712 N   0  0  0  0  0  0  0  0  0  0  0  0
    4.7677   -2.1195   27.5427 C   0  0  0  0  0  0  0  0  0  0  0  0
    3.5628   -1.2037   27.5160 C   0  0  0  0  0  0  0  0  0  0  0  0
    3.6942    0.1329   27.0746 C   0  0  0  0  0  0  0  0  0  0  0  0
    2.6112    1.0231   27.1116 C   0  0  0  0  0  0  0  0  0  0  0  0
    1.3981    0.5500   27.5634 C   0  0  0  0  0  0  0  0  0  0  0  0
    1.2503   -0.7446   27.9971 C   0  0  0  0  0  0  0  0  0  0  0  0
    2.3096   -1.6374   27.9979 C   0  0  0  0  0  0  0  0  0  0  0  0
   -0.0283   -1.0144   28.3791 O   0  0  0  0  0  0  0  0  0  0  0  0
   -0.6899    0.2106   27.9965 C   0  0  0  0  0  0  0  0  0  0  0  0
    0.2306    1.2487   27.5941 O   0  0  0  0  0  0  0  0  0  0  0  0
    5.7895   -4.1440   24.4106 C   0  0  0  0  0  0  0  0  0  0  0  0
    6.0122   -3.1476   23.2328 C   0  0  0  0  0  0  0  0  0  0  0  0
    6.9354   -3.2187   21.6925 C   0  0  0  0  0  0  0  0  0  0  0  0
    7.6626   -4.4013   21.1799 C   0  0  0  0  0  0  0  0  0  0  0  0
    9.6734   -4.9200   21.0080 C   0  0  0  0  0  0  0  0  0  0  0  0
   10.7954   -5.5123   20.4311 C   0  0  0  0  0  0  0  0  0  0  0  0
   12.1626   -5.5869   20.9161 C   0  0  0  0  0  0  0  0  0  0  0  0
   12.2774   -5.1188   22.1724 C   0  0  0  0  0  0  0  0  0  0  0  0
   11.1658   -3.8488   22.2070 S   0  0  0  0  0  0  0  0  0  0  0  0
    6.8458   -5.3784   22.5564 C   0  0  0  0  0  0  0  0  0  0  0  0
    6.1591   -5.3719   23.9838 C   0  0  0  0  0  0  0  0  0  0  0  0
    5.9305   -2.1678   25.7503 H   0  0  0  0  0  0  0  0  0  0  0  0
    5.6179   -1.5849   27.9818 H   0  0  0  0  0  0  0  0  0  0  0  0
    4.5601   -2.9735   28.1982 H   0  0  0  0  0  0  0  0  0  0  0  0
    4.6537    0.4883   26.7029 H   0  0  0  0  0  0  0  0  0  0  0  0
    2.7154    2.0452   26.7647 H   0  0  0  0  0  0  0  0  0  0  0  0
    2.1609   -2.6554   28.3440 H   0  0  0  0  0  0  0  0  0  0  0  0
   -1.3779    0.0025   27.1683 H   0  0  0  0  0  0  0  0  0  0  0  0
   -1.2704    0.5734   28.8519 H   0  0  0  0  0  0  0  0  0  0  0  0
    5.3354   -2.2696   23.3660 H   0  0  0  0  0  0  0  0  0  0  0  0
    6.1372   -2.7828   20.9990 H   0  0  0  0  0  0  0  0  0  0  0  0
   10.6396   -5.5222   19.3612 H   0  0  0  0  0  0  0  0  0  0  0  0
   13.0163   -5.9163   20.3402 H   0  0  0  0  0  0  0  0  0  0  0  0
   13.1470   -5.1101   22.8142 H   0  0  0  0  0  0  0  0  0  0  0  0
    6.5437   -6.4195   22.2390 H   0  0  0  0  0  0  0  0  0  0  0  0
    5.8573   -6.3023   24.4521 H   0  0  0  0  0  0  0  0  0  0  0  0
  1  2  2  0
  2  3  1  0
  3  4  1  0
  4  5  1  0
  5  6  2  0
  6  7  1  0
  7  8  2  0
  8  9  1  0
  9 10  2  0
  9 11  1  0
 11 12  1  0
 12 13  1  0
  2 14  1  0
 14 15  2  0
 15 16  1  0
 16 17  2  0
 17 18  1  0
 18 19  2  0
 19 20  1  0
 20 21  2  0
 21 22  1  0
 17 23  1  0
 23 24  2  0
 10  5  1  0
 24 14  1  0
 13  8  1  0
 22 18  1  0
  3 25  1  0
  4 26  1  0
  4 27  1  0
  6 28  1  0
  7 29  1  0
 10 30  1  0
 12 31  1  0
 12 32  1  0
 15 33  1  0
 16 34  1  0
 19 35  1  0
 20 36  1  0
 21 37  1  0
 23 38  1  0
 24 39  1  0
M  END
>  <Energy>  (499) 
447.66928809841164

>  <compound_id>  (499) 
74289

>  <target_id>  (499) 
1

>  <reference_id>  (499) 
13

>  <inspiration_ids>  (499) 
[13, 66]

>  <energy_score>  (499) 
357.78230558790926

>  <distance_score>  (499) 
6.275346285064592

>  <path>  (499) 
/opt/xchem-fragalysis-2/maxwin/BulkDock/SCRATCH/511017/C74289-P13/C74289-P13.minimised.mol

>  <scratch_subdir>  (499) 
/opt/xchem-fragalysis-2/maxwin/BulkDock/SCRATCH/511017/C74289-P13

>  <fragmenstein_runtime>  (499) 
11.431846141815186

>  <fragmenstein_outcome>  (499) 
too moved

>  <fragmenstein_mode>  (499) 
expansion

>  <fragmenstein_error>  (499) 


$$$$
C74289-P66
     RDKit          3D

 39 42  0  0  0  0  0  0  0  0999 V2000
    6.8229   -1.4890   25.8981 O   0  0  0  0  0  0  0  0  0  0  0  0
    5.7332   -1.6975   25.4320 C   0  0  0  0  0  0  0  0  0  0  0  0
    4.4016   -1.5059   26.0023 N   0  0  0  0  0  0  0  0  0  0  0  0
    3.9907   -1.1031   27.3207 C   0  0  0  0  0  0  0  0  0  0  0  0
    2.7320   -0.2678   27.3756 C   0  0  0  0  0  0  0  0  0  0  0  0
    2.8126    1.1231   27.1346 C   0  0  0  0  0  0  0  0  0  0  0  0
    1.6795    1.9434   27.1982 C   0  0  0  0  0  0  0  0  0  0  0  0
    0.4743    1.3507   27.5008 C   0  0  0  0  0  0  0  0  0  0  0  0
    0.3759    0.0015   27.7465 C   0  0  0  0  0  0  0  0  0  0  0  0
    1.4805   -0.8326   27.6905 C   0  0  0  0  0  0  0  0  0  0  0  0
   -0.9062   -0.3784   28.0048 O   0  0  0  0  0  0  0  0  0  0  0  0
   -1.6014    0.8771   27.8572 C   0  0  0  0  0  0  0  0  0  0  0  0
   -0.7276    1.9836   27.5618 O   0  0  0  0  0  0  0  0  0  0  0  0
    5.6887   -2.2839   23.9390 C   0  0  0  0  0  0  0  0  0  0  0  0
    4.9230   -1.6432   23.1180 C   0  0  0  0  0  0  0  0  0  0  0  0
    5.5873   -1.1593   21.6234 C   0  0  0  0  0  0  0  0  0  0  0  0
    6.5941   -1.4862   20.6610 C   0  0  0  0  0  0  0  0  0  0  0  0
    6.6774   -0.8263   18.9183 C   0  0  0  0  0  0  0  0  0  0  0  0
    5.6301   -1.0998   17.7962 C   0  0  0  0  0  0  0  0  0  0  0  0
    5.7882   -0.6724   16.3535 C   0  0  0  0  0  0  0  0  0  0  0  0
    7.1125   -0.5027   16.2933 C   0  0  0  0  0  0  0  0  0  0  0  0
    7.7789    0.0329   18.2242 S   0  0  0  0  0  0  0  0  0  0  0  0
    6.1481   -2.7206   21.1388 C   0  0  0  0  0  0  0  0  0  0  0  0
    6.3936   -3.0738   22.8891 C   0  0  0  0  0  0  0  0  0  0  0  0
    3.7094   -1.8668   25.3559 H   0  0  0  0  0  0  0  0  0  0  0  0
    3.8511   -2.0219   27.9020 H   0  0  0  0  0  0  0  0  0  0  0  0
    4.8219   -0.5674   27.7938 H   0  0  0  0  0  0  0  0  0  0  0  0
    3.7767    1.5654   26.8904 H   0  0  0  0  0  0  0  0  0  0  0  0
    1.7469    3.0072   27.0010 H   0  0  0  0  0  0  0  0  0  0  0  0
    1.3719   -1.8979   27.8646 H   0  0  0  0  0  0  0  0  0  0  0  0
   -2.3320    0.7794   27.0456 H   0  0  0  0  0  0  0  0  0  0  0  0
   -2.1374    1.0916   28.7888 H   0  0  0  0  0  0  0  0  0  0  0  0
    4.2582   -1.0302   23.6766 H   0  0  0  0  0  0  0  0  0  0  0  0
    5.1876   -0.1367   21.3294 H   0  0  0  0  0  0  0  0  0  0  0  0
    4.6992   -1.6465   17.9629 H   0  0  0  0  0  0  0  0  0  0  0  0
    5.0955   -0.9019   15.5458 H   0  0  0  0  0  0  0  0  0  0  0  0
    7.7206   -0.6827   15.3996 H   0  0  0  0  0  0  0  0  0  0  0  0
    5.4628   -3.2436   20.4674 H   0  0  0  0  0  0  0  0  0  0  0  0
    7.0684   -3.8931   23.1666 H   0  0  0  0  0  0  0  0  0  0  0  0
  1  2  2  0
  2  3  1  0
  3  4  1  0
  4  5  1  0
  5  6  2  0
  6  7  1  0
  7  8  2  0
  8  9  1  0
  9 10  2  0
  9 11  1  0
 11 12  1  0
 12 13  1  0
  2 14  1  0
 14 15  2  0
 15 16  1  0
 16 17  2  0
 17 18  1  0
 18 19  2  0
 19 20  1  0
 20 21  2  0
 21 22  1  0
 17 23  1  0
 23 24  2  0
 10  5  1  0
 24 14  1  0
 13  8  1  0
 22 18  1  0
  3 25  1  0
  4 26  1  0
  4 27  1  0
  6 28  1  0
  7 29  1  0
 10 30  1  0
 12 31  1  0
 12 32  1  0
 15 33  1  0
 16 34  1  0
 19 35  1  0
 20 36  1  0
 21 37  1  0
 23 38  1  0
 24 39  1  0
M  END
>  <Energy>  (500) 
391.30644622235599

>  <compound_id>  (500) 
74289

>  <target_id>  (500) 
1

>  <reference_id>  (500) 
66

>  <inspiration_ids>  (500) 
[13, 66]

>  <energy_score>  (500) 
301.419463711867

>  <distance_score>  (500) 
6.157019296281341

>  <path>  (500) 
/opt/xchem-fragalysis-2/maxwin/BulkDock/SCRATCH/511017/C74289-P66/C74289-P66.minimised.mol

>  <scratch_subdir>  (500) 
/opt/xchem-fragalysis-2/maxwin/BulkDock/SCRATCH/511017/C74289-P66

>  <fragmenstein_runtime>  (500) 
13.126127243041992

>  <fragmenstein_outcome>  (500) 
too moved

>  <fragmenstein_mode>  (500) 
expansion

>  <fragmenstein_error>  (500) 


$$$$
C74291-P13
     RDKit          3D

 40 43  0  0  0  0  0  0  0  0999 V2000
   10.8497   -1.9521   25.0518 C   0  0  0  0  0  0  0  0  0  0  0  0
   10.8979   -0.5826   25.0639 C   0  0  0  0  0  0  0  0  0  0  0  0
    9.5039    0.0902   25.8131 S   0  0  0  0  0  0  0  0  0  0  0  0
    8.7395   -1.4413   26.1574 C   0  0  0  0  0  0  0  0  0  0  0  0
    7.2912   -1.5618   26.8918 C   0  0  0  0  0  0  0  0  0  0  0  0
    6.3722   -0.5049   27.1660 C   0  0  0  0  0  0  0  0  0  0  0  0
    5.0397   -0.6587   27.8437 C   0  0  0  0  0  0  0  0  0  0  0  0
    4.5514   -1.8954   28.2968 C   0  0  0  0  0  0  0  0  0  0  0  0
    3.2192   -2.0720   29.0987 C   0  0  0  0  0  0  0  0  0  0  0  0
    2.0274   -2.3659   28.2906 N   0  0  0  0  0  0  0  0  0  0  0  0
    0.7527   -2.0386   28.9452 C   0  0  0  0  0  0  0  0  0  0  0  0
    0.1797   -0.7035   28.4986 C   0  0  0  0  0  0  0  0  0  0  0  0
    0.8780    0.5029   28.7394 C   0  0  0  0  0  0  0  0  0  0  0  0
    0.3962    1.7323   28.2783 C   0  0  0  0  0  0  0  0  0  0  0  0
   -0.7932    1.7378   27.5895 C   0  0  0  0  0  0  0  0  0  0  0  0
   -1.5005    0.5836   27.3674 C   0  0  0  0  0  0  0  0  0  0  0  0
   -1.0506   -0.6449   27.8159 C   0  0  0  0  0  0  0  0  0  0  0  0
   -2.6325    0.8131   26.6505 O   0  0  0  0  0  0  0  0  0  0  0  0
   -2.5849    2.2454   26.4963 C   0  0  0  0  0  0  0  0  0  0  0  0
   -1.3919    2.8337   27.0534 O   0  0  0  0  0  0  0  0  0  0  0  0
    5.4468   -2.9537   28.0004 C   0  0  0  0  0  0  0  0  0  0  0  0
    6.7541   -2.7933   27.3333 C   0  0  0  0  0  0  0  0  0  0  0  0
    9.6802   -2.4205   25.7577 C   0  0  0  0  0  0  0  0  0  0  0  0
   11.6208   -2.5853   24.6332 H   0  0  0  0  0  0  0  0  0  0  0  0
   11.6683    0.0656   24.6703 H   0  0  0  0  0  0  0  0  0  0  0  0
    6.6389    0.5071   26.8592 H   0  0  0  0  0  0  0  0  0  0  0  0
    4.4521    0.2468   27.9889 H   0  0  0  0  0  0  0  0  0  0  0  0
    3.3715   -2.8882   29.8154 H   0  0  0  0  0  0  0  0  0  0  0  0
    3.0985   -1.1631   29.6961 H   0  0  0  0  0  0  0  0  0  0  0  0
    2.0780   -1.8332   27.4209 H   0  0  0  0  0  0  0  0  0  0  0  0
    0.0430   -2.8330   28.6851 H   0  0  0  0  0  0  0  0  0  0  0  0
    0.8360   -2.0562   30.0389 H   0  0  0  0  0  0  0  0  0  0  0  0
    1.8175    0.4977   29.2824 H   0  0  0  0  0  0  0  0  0  0  0  0
    0.9410    2.6533   28.4515 H   0  0  0  0  0  0  0  0  0  0  0  0
   -1.6247   -1.5409   27.5954 H   0  0  0  0  0  0  0  0  0  0  0  0
   -3.4622    2.6867   26.9786 H   0  0  0  0  0  0  0  0  0  0  0  0
   -2.6201    2.4812   25.4267 H   0  0  0  0  0  0  0  0  0  0  0  0
    5.1661   -3.9678   28.2890 H   0  0  0  0  0  0  0  0  0  0  0  0
    7.3286   -3.7034   27.1616 H   0  0  0  0  0  0  0  0  0  0  0  0
    9.4952   -3.4737   25.9344 H   0  0  0  0  0  0  0  0  0  0  0  0
  1  2  2  0
  2  3  1  0
  3  4  1  0
  4  5  1  0
  5  6  2  0
  6  7  1  0
  7  8  2  0
  8  9  1  0
  9 10  1  0
 10 11  1  0
 11 12  1  0
 12 13  2  0
 13 14  1  0
 14 15  2  0
 15 16  1  0
 16 17  2  0
 16 18  1  0
 18 19  1  0
 19 20  1  0
  8 21  1  0
 21 22  2  0
  4 23  2  0
 23  1  1  0
 22  5  1  0
 17 12  1  0
 20 15  1  0
  1 24  1  0
  2 25  1  0
  6 26  1  0
  7 27  1  0
  9 28  1  0
  9 29  1  0
 10 30  1  0
 11 31  1  0
 11 32  1  0
 13 33  1  0
 14 34  1  0
 17 35  1  0
 19 36  1  0
 19 37  1  0
 21 38  1  0
 22 39  1  0
 23 40  1  0
M  END
>  <Energy>  (501) 
68.900168887441993

>  <compound_id>  (501) 
74291

>  <target_id>  (501) 
1

>  <reference_id>  (501) 
13

>  <inspiration_ids>  (501) 
[13, 66]

>  <energy_score>  (501) 
-13.188029536340878

>  <distance_score>  (501) 
6.256453893374128

>  <path>  (501) 
/opt/xchem-fragalysis-2/maxwin/BulkDock/SCRATCH/511017/C74291-P13/C74291-P13.minimised.mol

>  <scratch_subdir>  (501) 
/opt/xchem-fragalysis-2/maxwin/BulkDock/SCRATCH/511017/C74291-P13

>  <fragmenstein_runtime>  (501) 
6.215251922607422

>  <fragmenstein_outcome>  (501) 
too moved

>  <fragmenstein_mode>  (501) 
expansion

>  <fragmenstein_error>  (501) 


$$$$
C74291-P66
     RDKit          3D

 40 43  0  0  0  0  0  0  0  0999 V2000
    6.8122    0.3301   18.2034 C   0  0  0  0  0  0  0  0  0  0  0  0
    7.2200    1.5644   18.6022 C   0  0  0  0  0  0  0  0  0  0  0  0
    7.8494    1.4563   20.2742 S   0  0  0  0  0  0  0  0  0  0  0  0
    6.8498   -0.5084   20.4361 C   0  0  0  0  0  0  0  0  0  0  0  0
    5.7718   -1.3145   21.8151 C   0  0  0  0  0  0  0  0  0  0  0  0
    5.7932   -1.6966   23.4501 C   0  0  0  0  0  0  0  0  0  0  0  0
    5.0884   -1.5927   24.7529 C   0  0  0  0  0  0  0  0  0  0  0  0
    3.8249   -1.8512   24.6809 C   0  0  0  0  0  0  0  0  0  0  0  0
    3.0383   -1.5180   25.8995 C   0  0  0  0  0  0  0  0  0  0  0  0
    3.1233   -2.3791   27.0888 N   0  0  0  0  0  0  0  0  0  0  0  0
    2.7151   -1.6653   28.3074 C   0  0  0  0  0  0  0  0  0  0  0  0
    1.3333   -1.0369   28.2644 C   0  0  0  0  0  0  0  0  0  0  0  0
    0.1788   -1.8271   28.4442 C   0  0  0  0  0  0  0  0  0  0  0  0
   -1.1014   -1.2728   28.3189 C   0  0  0  0  0  0  0  0  0  0  0  0
   -1.2003    0.0607   27.9883 C   0  0  0  0  0  0  0  0  0  0  0  0
   -0.0877    0.8427   27.8161 C   0  0  0  0  0  0  0  0  0  0  0  0
    1.1851    0.3321   27.9655 C   0  0  0  0  0  0  0  0  0  0  0  0
   -0.4002    2.1159   27.4521 O   0  0  0  0  0  0  0  0  0  0  0  0
   -1.8376    2.0335   27.3710 C   0  0  0  0  0  0  0  0  0  0  0  0
   -2.3515    0.7444   27.7592 O   0  0  0  0  0  0  0  0  0  0  0  0
    3.8189   -2.3879   23.3957 C   0  0  0  0  0  0  0  0  0  0  0  0
    5.2097   -2.3758   22.1407 C   0  0  0  0  0  0  0  0  0  0  0  0
    7.3999   -0.5588   19.1429 C   0  0  0  0  0  0  0  0  0  0  0  0
    6.4455    0.0775   17.2202 H   0  0  0  0  0  0  0  0  0  0  0  0
    7.2501    2.5121   18.0802 H   0  0  0  0  0  0  0  0  0  0  0  0
    6.2736   -2.7327   23.7527 H   0  0  0  0  0  0  0  0  0  0  0  0
    5.6404   -1.4790   25.6795 H   0  0  0  0  0  0  0  0  0  0  0  0
    2.0127   -1.3380   25.7166 H   0  0  0  0  0  0  0  0  0  0  0  0
    3.4024   -0.5183   26.1901 H   0  0  0  0  0  0  0  0  0  0  0  0
    4.1048   -2.6530   27.1624 H   0  0  0  0  0  0  0  0  0  0  0  0
    2.7444   -2.3736   29.1446 H   0  0  0  0  0  0  0  0  0  0  0  0
    3.4589   -0.8956   28.5514 H   0  0  0  0  0  0  0  0  0  0  0  0
    0.2814   -2.8940   28.6315 H   0  0  0  0  0  0  0  0  0  0  0  0
   -1.9867   -1.8913   28.4157 H   0  0  0  0  0  0  0  0  0  0  0  0
    2.0487    0.9664   27.7946 H   0  0  0  0  0  0  0  0  0  0  0  0
   -2.1432    2.2356   26.3375 H   0  0  0  0  0  0  0  0  0  0  0  0
   -2.2727    2.8000   28.0197 H   0  0  0  0  0  0  0  0  0  0  0  0
    2.9090   -2.9273   23.1086 H   0  0  0  0  0  0  0  0  0  0  0  0
    5.2106   -2.9890   21.2192 H   0  0  0  0  0  0  0  0  0  0  0  0
    8.4723   -0.5936   19.1630 H   0  0  0  0  0  0  0  0  0  0  0  0
  1  2  2  0
  2  3  1  0
  3  4  1  0
  4  5  1  0
  5  6  2  0
  6  7  1  0
  7  8  2  0
  8  9  1  0
  9 10  1  0
 10 11  1  0
 11 12  1  0
 12 13  2  0
 13 14  1  0
 14 15  2  0
 15 16  1  0
 16 17  2  0
 16 18  1  0
 18 19  1  0
 19 20  1  0
  8 21  1  0
 21 22  2  0
  4 23  2  0
 23  1  1  0
 22  5  1  0
 17 12  1  0
 20 15  1  0
  1 24  1  0
  2 25  1  0
  6 26  1  0
  7 27  1  0
  9 28  1  0
  9 29  1  0
 10 30  1  0
 11 31  1  0
 11 32  1  0
 13 33  1  0
 14 34  1  0
 17 35  1  0
 19 36  1  0
 19 37  1  0
 21 38  1  0
 22 39  1  0
 23 40  1  0
M  END
>  <Energy>  (502) 
563.77166353530163

>  <compound_id>  (502) 
74291

>  <target_id>  (502) 
1

>  <reference_id>  (502) 
66

>  <inspiration_ids>  (502) 
[13, 66]

>  <energy_score>  (502) 
475.01390646056666

>  <distance_score>  (502) 
5.793867915993864

>  <path>  (502) 
/opt/xchem-fragalysis-2/maxwin/BulkDock/SCRATCH/511017/C74291-P66/C74291-P66.minimised.mol

>  <scratch_subdir>  (502) 
/opt/xchem-fragalysis-2/maxwin/BulkDock/SCRATCH/511017/C74291-P66

>  <fragmenstein_runtime>  (502) 
13.106538772583008

>  <fragmenstein_outcome>  (502) 
too moved

>  <fragmenstein_mode>  (502) 
expansion

>  <fragmenstein_error>  (502) 


$$$$
C74301-P13
     RDKit          3D

 41 44  0  0  0  0  0  0  0  0999 V2000
    3.6364    2.4762   23.1096 O   0  0  0  0  0  0  0  0  0  0  0  0
    4.0824    1.9230   24.0415 C   0  0  0  0  0  0  0  0  0  0  0  0
    4.1097    2.3222   25.4721 N   0  0  0  0  0  0  0  0  0  0  0  0
    3.5176    3.4459   26.1429 C   0  0  0  0  0  0  0  0  0  0  0  0
    2.0644    3.1155   26.4502 C   0  0  0  0  0  0  0  0  0  0  0  0
    1.0354    3.8403   25.8069 C   0  0  0  0  0  0  0  0  0  0  0  0
   -0.3116    3.5019   25.9761 C   0  0  0  0  0  0  0  0  0  0  0  0
   -0.6061    2.4215   26.7736 C   0  0  0  0  0  0  0  0  0  0  0  0
    0.3769    1.7138   27.4213 C   0  0  0  0  0  0  0  0  0  0  0  0
    1.7146    2.0427   27.2960 C   0  0  0  0  0  0  0  0  0  0  0  0
   -0.1260    0.6621   28.1230 O   0  0  0  0  0  0  0  0  0  0  0  0
   -1.5251    0.7461   27.7695 C   0  0  0  0  0  0  0  0  0  0  0  0
   -1.8446    1.9021   26.9745 O   0  0  0  0  0  0  0  0  0  0  0  0
    4.7045    0.5506   24.1570 N   0  0  0  0  0  0  0  0  0  0  0  0
    4.8536   -0.6171   23.0896 C   0  0  0  0  0  0  0  0  0  0  0  0
    4.6578   -1.6132   24.1704 C   0  0  0  0  0  0  0  0  0  0  0  0
    5.4616   -2.6753   24.1606 C   0  0  0  0  0  0  0  0  0  0  0  0
    5.9167   -3.0960   22.7963 C   0  0  0  0  0  0  0  0  0  0  0  0
    5.5271   -2.5151   21.2385 C   0  0  0  0  0  0  0  0  0  0  0  0
    5.3474   -0.8379   21.3489 C   0  0  0  0  0  0  0  0  0  0  0  0
    6.5650    0.1969   20.1133 C   0  0  0  0  0  0  0  0  0  0  0  0
    7.4142    1.6117   19.8713 C   0  0  0  0  0  0  0  0  0  0  0  0
    8.0659    1.9378   18.6365 C   0  0  0  0  0  0  0  0  0  0  0  0
    8.1488    0.7553   18.0074 C   0  0  0  0  0  0  0  0  0  0  0  0
    8.0098   -0.2641   19.3373 S   0  0  0  0  0  0  0  0  0  0  0  0
    4.6423    1.6552   25.9912 H   0  0  0  0  0  0  0  0  0  0  0  0
    3.5944    4.3196   25.4884 H   0  0  0  0  0  0  0  0  0  0  0  0
    4.0676    3.6382   27.0689 H   0  0  0  0  0  0  0  0  0  0  0  0
    1.2861    4.6612   25.1355 H   0  0  0  0  0  0  0  0  0  0  0  0
   -1.0977    4.0518   25.4691 H   0  0  0  0  0  0  0  0  0  0  0  0
    2.4708    1.4496   27.7970 H   0  0  0  0  0  0  0  0  0  0  0  0
   -2.1101    0.7819   28.6941 H   0  0  0  0  0  0  0  0  0  0  0  0
   -1.8036   -0.1565   27.2127 H   0  0  0  0  0  0  0  0  0  0  0  0
    4.9066    0.3578   25.1147 H   0  0  0  0  0  0  0  0  0  0  0  0
    4.2268   -1.3705   25.1380 H   0  0  0  0  0  0  0  0  0  0  0  0
    5.6038   -3.3116   25.0309 H   0  0  0  0  0  0  0  0  0  0  0  0
    6.4397   -4.0570   22.9434 H   0  0  0  0  0  0  0  0  0  0  0  0
    5.5575   -3.0320   20.3048 H   0  0  0  0  0  0  0  0  0  0  0  0
    7.2261    2.4746   20.4640 H   0  0  0  0  0  0  0  0  0  0  0  0
    8.3756    2.9118   18.2842 H   0  0  0  0  0  0  0  0  0  0  0  0
    8.5663    0.5294   17.0356 H   0  0  0  0  0  0  0  0  0  0  0  0
  1  2  2  0
  2  3  1  0
  3  4  1  0
  4  5  1  0
  5  6  2  0
  6  7  1  0
  7  8  2  0
  8  9  1  0
  9 10  2  0
  9 11  1  0
 11 12  1  0
 12 13  1  0
  2 14  1  0
 14 15  1  0
 15 16  2  0
 16 17  1  0
 17 18  2  0
 18 19  1  0
 19 20  2  0
 20 21  1  0
 21 22  2  0
 22 23  1  0
 23 24  2  0
 24 25  1  0
 10  5  1  0
 20 15  1  0
 25 21  1  0
 13  8  1  0
  3 26  1  0
  4 27  1  0
  4 28  1  0
  6 29  1  0
  7 30  1  0
 10 31  1  0
 12 32  1  0
 12 33  1  0
 14 34  1  0
 16 35  1  0
 17 36  1  0
 18 37  1  0
 19 38  1  0
 22 39  1  0
 23 40  1  0
 24 41  1  0
M  END
>  <Energy>  (503) 
405.86618166901485

>  <compound_id>  (503) 
74301

>  <target_id>  (503) 
1

>  <reference_id>  (503) 
13

>  <inspiration_ids>  (503) 
[13, 66]

>  <energy_score>  (503) 
343.27401580403136

>  <distance_score>  (503) 
6.616535952105366

>  <path>  (503) 
/opt/xchem-fragalysis-2/maxwin/BulkDock/SCRATCH/511017/C74301-P13/C74301-P13.minimised.mol

>  <scratch_subdir>  (503) 
/opt/xchem-fragalysis-2/maxwin/BulkDock/SCRATCH/511017/C74301-P13

>  <fragmenstein_runtime>  (503) 
23.627999782562256

>  <fragmenstein_outcome>  (503) 
too moved

>  <fragmenstein_mode>  (503) 
expansion

>  <fragmenstein_error>  (503) 


$$$$
C74301-P66
     RDKit          3D

 41 44  0  0  0  0  0  0  0  0999 V2000
    3.4329    0.1475   25.5067 O   0  0  0  0  0  0  0  0  0  0  0  0
    4.2962   -0.6338   25.6411 C   0  0  0  0  0  0  0  0  0  0  0  0
    4.9476   -1.1281   26.8703 N   0  0  0  0  0  0  0  0  0  0  0  0
    4.6544   -0.8725   28.2592 C   0  0  0  0  0  0  0  0  0  0  0  0
    3.2581   -0.2990   28.4690 C   0  0  0  0  0  0  0  0  0  0  0  0
    3.1074    1.0679   28.8067 C   0  0  0  0  0  0  0  0  0  0  0  0
    1.8439    1.6706   28.8757 C   0  0  0  0  0  0  0  0  0  0  0  0
    0.7432    0.8925   28.5978 C   0  0  0  0  0  0  0  0  0  0  0  0
    0.8653   -0.4408   28.2861 C   0  0  0  0  0  0  0  0  0  0  0  0
    2.0999   -1.0657   28.2190 C   0  0  0  0  0  0  0  0  0  0  0  0
   -0.3437   -1.0198   28.0448 O   0  0  0  0  0  0  0  0  0  0  0  0
   -1.2158    0.1245   28.1302 C   0  0  0  0  0  0  0  0  0  0  0  0
   -0.5490    1.3202   28.5800 O   0  0  0  0  0  0  0  0  0  0  0  0
    5.0029   -1.5139   24.5988 N   0  0  0  0  0  0  0  0  0  0  0  0
    4.7383   -1.6966   23.2015 C   0  0  0  0  0  0  0  0  0  0  0  0
    3.4600   -2.5075   23.4441 C   0  0  0  0  0  0  0  0  0  0  0  0
    3.0212   -3.3458   22.3968 C   0  0  0  0  0  0  0  0  0  0  0  0
    4.3297   -3.5662   21.1011 C   0  0  0  0  0  0  0  0  0  0  0  0
    5.5148   -2.7078   20.9782 C   0  0  0  0  0  0  0  0  0  0  0  0
    5.6421   -1.4961   21.7184 C   0  0  0  0  0  0  0  0  0  0  0  0
    6.5787   -0.2039   20.6024 C   0  0  0  0  0  0  0  0  0  0  0  0
    7.3325   -0.1896   19.4253 C   0  0  0  0  0  0  0  0  0  0  0  0
    8.6532    0.0772   19.8145 C   0  0  0  0  0  0  0  0  0  0  0  0
    9.0199    1.0951   20.6501 C   0  0  0  0  0  0  0  0  0  0  0  0
    7.5633    1.8482   20.7072 S   0  0  0  0  0  0  0  0  0  0  0  0
    5.7093   -1.7353   26.6200 H   0  0  0  0  0  0  0  0  0  0  0  0
    5.4234   -0.1928   28.6401 H   0  0  0  0  0  0  0  0  0  0  0  0
    4.7491   -1.8186   28.8026 H   0  0  0  0  0  0  0  0  0  0  0  0
    3.9888    1.6857   28.9667 H   0  0  0  0  0  0  0  0  0  0  0  0
    1.7387    2.7251   29.1028 H   0  0  0  0  0  0  0  0  0  0  0  0
    2.1706   -2.1017   27.9058 H   0  0  0  0  0  0  0  0  0  0  0  0
   -2.0251   -0.1070   28.8317 H   0  0  0  0  0  0  0  0  0  0  0  0
   -1.6537    0.3130   27.1426 H   0  0  0  0  0  0  0  0  0  0  0  0
    5.6451   -2.1353   25.0637 H   0  0  0  0  0  0  0  0  0  0  0  0
    2.9818   -2.4685   24.4071 H   0  0  0  0  0  0  0  0  0  0  0  0
    2.0492   -3.8383   22.3390 H   0  0  0  0  0  0  0  0  0  0  0  0
    4.2387   -4.3440   20.3031 H   0  0  0  0  0  0  0  0  0  0  0  0
    5.7234   -2.8662   19.9599 H   0  0  0  0  0  0  0  0  0  0  0  0
    6.9655   -0.6852   18.5689 H   0  0  0  0  0  0  0  0  0  0  0  0
    9.4567   -0.3385   19.3415 H   0  0  0  0  0  0  0  0  0  0  0  0
    9.9575    1.5217   20.9661 H   0  0  0  0  0  0  0  0  0  0  0  0
  1  2  2  0
  2  3  1  0
  3  4  1  0
  4  5  1  0
  5  6  2  0
  6  7  1  0
  7  8  2  0
  8  9  1  0
  9 10  2  0
  9 11  1  0
 11 12  1  0
 12 13  1  0
  2 14  1  0
 14 15  1  0
 15 16  2  0
 16 17  1  0
 17 18  2  0
 18 19  1  0
 19 20  2  0
 20 21  1  0
 21 22  2  0
 22 23  1  0
 23 24  2  0
 24 25  1  0
 10  5  1  0
 20 15  1  0
 25 21  1  0
 13  8  1  0
  3 26  1  0
  4 27  1  0
  4 28  1  0
  6 29  1  0
  7 30  1  0
 10 31  1  0
 12 32  1  0
 12 33  1  0
 14 34  1  0
 16 35  1  0
 17 36  1  0
 18 37  1  0
 19 38  1  0
 22 39  1  0
 23 40  1  0
 24 41  1  0
M  END
>  <Energy>  (504) 
391.03102380992681

>  <compound_id>  (504) 
74301

>  <target_id>  (504) 
1

>  <reference_id>  (504) 
66

>  <inspiration_ids>  (504) 
[13, 66]

>  <energy_score>  (504) 
328.43885794495475

>  <distance_score>  (504) 
6.064317989655999

>  <path>  (504) 
/opt/xchem-fragalysis-2/maxwin/BulkDock/SCRATCH/511017/C74301-P66/C74301-P66.minimised.mol

>  <scratch_subdir>  (504) 
/opt/xchem-fragalysis-2/maxwin/BulkDock/SCRATCH/511017/C74301-P66

>  <fragmenstein_runtime>  (504) 
21.61126399040222

>  <fragmenstein_outcome>  (504) 
too moved

>  <fragmenstein_mode>  (504) 
expansion

>  <fragmenstein_error>  (504) 


$$$$
C74302-P13
     RDKit          3D

 45 48  0  0  0  0  0  0  0  0999 V2000
    4.0371   -0.1187   25.1603 O   0  0  0  0  0  0  0  0  0  0  0  0
    4.1311    1.0224   25.4114 C   0  0  0  0  0  0  0  0  0  0  0  0
    4.5215    2.1730   24.5404 N   0  0  0  0  0  0  0  0  0  0  0  0
    4.7996    2.2336   23.0929 C   0  0  0  0  0  0  0  0  0  0  0  0
    5.9999    1.9633   21.3926 C   0  0  0  0  0  0  0  0  0  0  0  0
    4.5502    0.9575   21.1370 O   0  0  0  0  0  0  0  0  0  0  0  0
    7.3171    2.4012   19.9548 C   0  0  0  0  0  0  0  0  0  0  0  0
    7.7273    3.6624   19.4939 C   0  0  0  0  0  0  0  0  0  0  0  0
    8.5130    3.7344   18.2934 C   0  0  0  0  0  0  0  0  0  0  0  0
    8.8362    2.6061   17.4859 C   0  0  0  0  0  0  0  0  0  0  0  0
    9.6300    2.6706   16.2230 C   0  0  0  0  0  0  0  0  0  0  0  0
   10.2278    3.7551   15.6025 C   0  0  0  0  0  0  0  0  0  0  0  0
   10.9635    3.4065   14.4270 C   0  0  0  0  0  0  0  0  0  0  0  0
   10.9101    2.0609   14.1589 C   0  0  0  0  0  0  0  0  0  0  0  0
    9.9823    1.2294   15.3116 S   0  0  0  0  0  0  0  0  0  0  0  0
    8.3752    1.3773   17.9309 C   0  0  0  0  0  0  0  0  0  0  0  0
    7.6889    1.2625   19.1308 C   0  0  0  0  0  0  0  0  0  0  0  0
    3.7917    1.7652   26.6638 N   0  0  0  0  0  0  0  0  0  0  0  0
    3.1805    1.3316   27.8432 C   0  0  0  0  0  0  0  0  0  0  0  0
    2.9138    2.2942   28.8353 C   0  0  0  0  0  0  0  0  0  0  0  0
    1.8257    2.1361   29.7057 C   0  0  0  0  0  0  0  0  0  0  0  0
    1.0225    1.0286   29.5375 C   0  0  0  0  0  0  0  0  0  0  0  0
    1.3309    0.0495   28.6258 C   0  0  0  0  0  0  0  0  0  0  0  0
    2.4337    0.1438   27.8026 C   0  0  0  0  0  0  0  0  0  0  0  0
    0.3831   -0.9248   28.5722 O   0  0  0  0  0  0  0  0  0  0  0  0
   -0.6214   -0.3694   29.4395 C   0  0  0  0  0  0  0  0  0  0  0  0
   -0.1596    0.7921   30.1692 O   0  0  0  0  0  0  0  0  0  0  0  0
    4.4194    3.0249   25.0521 H   0  0  0  0  0  0  0  0  0  0  0  0
    4.3170    3.2533   23.0005 H   0  0  0  0  0  0  0  0  0  0  0  0
    3.8695    1.7640   22.8530 H   0  0  0  0  0  0  0  0  0  0  0  0
    6.2410    0.9663   20.7254 H   0  0  0  0  0  0  0  0  0  0  0  0
    3.7123    1.4638   21.1086 H   0  0  0  0  0  0  0  0  0  0  0  0
    7.4536    4.5784   20.0026 H   0  0  0  0  0  0  0  0  0  0  0  0
    8.8492    4.7211   17.9784 H   0  0  0  0  0  0  0  0  0  0  0  0
   10.1629    4.7653   15.9861 H   0  0  0  0  0  0  0  0  0  0  0  0
   11.5013    4.1157   13.8104 H   0  0  0  0  0  0  0  0  0  0  0  0
   11.3638    1.5251   13.3364 H   0  0  0  0  0  0  0  0  0  0  0  0
    8.5018    0.4764   17.3448 H   0  0  0  0  0  0  0  0  0  0  0  0
    7.3349    0.2582   19.3618 H   0  0  0  0  0  0  0  0  0  0  0  0
    4.0727    2.7191   26.5691 H   0  0  0  0  0  0  0  0  0  0  0  0
    3.4705    3.2271   28.8626 H   0  0  0  0  0  0  0  0  0  0  0  0
    1.5680    2.9057   30.4245 H   0  0  0  0  0  0  0  0  0  0  0  0
    2.5812   -0.6048   27.0334 H   0  0  0  0  0  0  0  0  0  0  0  0
   -0.9215   -1.1351   30.1633 H   0  0  0  0  0  0  0  0  0  0  0  0
   -1.4973   -0.0877   28.8419 H   0  0  0  0  0  0  0  0  0  0  0  0
  1  2  2  0
  2  3  1  0
  3  4  1  0
  4  5  1  0
  5  6  1  0
  5  7  1  0
  7  8  2  0
  8  9  1  0
  9 10  2  0
 10 11  1  0
 11 12  2  0
 12 13  1  0
 13 14  2  0
 14 15  1  0
 10 16  1  0
 16 17  2  0
  2 18  1  0
 18 19  1  0
 19 20  2  0
 20 21  1  0
 21 22  2  0
 22 23  1  0
 23 24  2  0
 23 25  1  0
 25 26  1  0
 26 27  1  0
 17  7  1  0
 24 19  1  0
 15 11  1  0
 27 22  1  0
  3 28  1  0
  4 29  1  0
  4 30  1  0
  5 31  1  0
  6 32  1  0
  8 33  1  0
  9 34  1  0
 12 35  1  0
 13 36  1  0
 14 37  1  0
 16 38  1  0
 17 39  1  0
 18 40  1  0
 20 41  1  0
 21 42  1  0
 24 43  1  0
 26 44  1  0
 26 45  1  0
M  END
>  <Energy>  (505) 
382.68868779327295

>  <compound_id>  (505) 
74302

>  <target_id>  (505) 
1

>  <reference_id>  (505) 
13

>  <inspiration_ids>  (505) 
[13, 66]

>  <energy_score>  (505) 
315.9016747394629

>  <distance_score>  (505) 
6.72756217050065

>  <path>  (505) 
/opt/xchem-fragalysis-2/maxwin/BulkDock/SCRATCH/511017/C74302-P13/C74302-P13.minimised.mol

>  <scratch_subdir>  (505) 
/opt/xchem-fragalysis-2/maxwin/BulkDock/SCRATCH/511017/C74302-P13

>  <fragmenstein_runtime>  (505) 
14.263003587722778

>  <fragmenstein_outcome>  (505) 
too moved

>  <fragmenstein_mode>  (505) 
expansion

>  <fragmenstein_error>  (505) 


$$$$
C74302-P66
     RDKit          3D

 45 48  0  0  0  0  0  0  0  0999 V2000
    3.1325   -1.6050   26.5815 O   0  0  0  0  0  0  0  0  0  0  0  0
    2.8435   -0.4744   26.4409 C   0  0  0  0  0  0  0  0  0  0  0  0
    3.1998    0.4803   25.3696 N   0  0  0  0  0  0  0  0  0  0  0  0
    4.1252    0.3337   24.1761 C   0  0  0  0  0  0  0  0  0  0  0  0
    4.3688    0.6899   22.1035 C   0  0  0  0  0  0  0  0  0  0  0  0
    3.0076    1.3536   21.5991 O   0  0  0  0  0  0  0  0  0  0  0  0
    6.0898    0.2731   21.1227 C   0  0  0  0  0  0  0  0  0  0  0  0
    6.7874   -0.8223   20.5324 C   0  0  0  0  0  0  0  0  0  0  0  0
    7.6970   -0.6515   19.4137 C   0  0  0  0  0  0  0  0  0  0  0  0
    7.6034    0.1335   18.3567 C   0  0  0  0  0  0  0  0  0  0  0  0
    6.9481   -0.4284   16.6584 C   0  0  0  0  0  0  0  0  0  0  0  0
    5.5531   -0.6153   16.1432 C   0  0  0  0  0  0  0  0  0  0  0  0
    5.3628   -1.3292   14.8646 C   0  0  0  0  0  0  0  0  0  0  0  0
    6.5661   -1.6653   14.3032 C   0  0  0  0  0  0  0  0  0  0  0  0
    7.9188   -1.2078   15.2225 S   0  0  0  0  0  0  0  0  0  0  0  0
    7.6369    1.3946   19.1704 C   0  0  0  0  0  0  0  0  0  0  0  0
    7.2938    1.4963   20.5784 C   0  0  0  0  0  0  0  0  0  0  0  0
    1.9250    0.3987   27.2392 N   0  0  0  0  0  0  0  0  0  0  0  0
    1.0924    0.1007   28.3025 C   0  0  0  0  0  0  0  0  0  0  0  0
    0.5479    1.2214   28.9692 C   0  0  0  0  0  0  0  0  0  0  0  0
   -0.4580    1.0728   29.9142 C   0  0  0  0  0  0  0  0  0  0  0  0
   -0.9125   -0.2007   30.1406 C   0  0  0  0  0  0  0  0  0  0  0  0
   -0.3742   -1.2984   29.5014 C   0  0  0  0  0  0  0  0  0  0  0  0
    0.6503   -1.1875   28.5840 C   0  0  0  0  0  0  0  0  0  0  0  0
   -0.9958   -2.4515   29.8685 O   0  0  0  0  0  0  0  0  0  0  0  0
   -1.9163   -1.9571   30.8579 C   0  0  0  0  0  0  0  0  0  0  0  0
   -1.9271   -0.5239   30.9833 O   0  0  0  0  0  0  0  0  0  0  0  0
    2.8507    1.3871   25.6058 H   0  0  0  0  0  0  0  0  0  0  0  0
    4.9189    0.5020   24.8842 H   0  0  0  0  0  0  0  0  0  0  0  0
    3.3860    1.1771   24.0157 H   0  0  0  0  0  0  0  0  0  0  0  0
    4.2527   -0.3462   21.8002 H   0  0  0  0  0  0  0  0  0  0  0  0
    3.0154    2.2294   22.0130 H   0  0  0  0  0  0  0  0  0  0  0  0
    6.4355   -1.8320   20.7539 H   0  0  0  0  0  0  0  0  0  0  0  0
    8.4426   -1.3432   19.2249 H   0  0  0  0  0  0  0  0  0  0  0  0
    4.6702   -0.4271   16.7417 H   0  0  0  0  0  0  0  0  0  0  0  0
    4.3964   -1.5482   14.4306 H   0  0  0  0  0  0  0  0  0  0  0  0
    6.7306   -2.0914   13.3329 H   0  0  0  0  0  0  0  0  0  0  0  0
    7.6965    2.3704   18.6625 H   0  0  0  0  0  0  0  0  0  0  0  0
    7.2978    2.5170   20.9671 H   0  0  0  0  0  0  0  0  0  0  0  0
    1.9721    1.3330   26.8926 H   0  0  0  0  0  0  0  0  0  0  0  0
    0.8946    2.2251   28.7344 H   0  0  0  0  0  0  0  0  0  0  0  0
   -0.8785    1.9246   30.4294 H   0  0  0  0  0  0  0  0  0  0  0  0
    1.0237   -2.0540   28.0492 H   0  0  0  0  0  0  0  0  0  0  0  0
   -1.6499   -2.3908   31.8296 H   0  0  0  0  0  0  0  0  0  0  0  0
   -2.9238   -2.2956   30.6015 H   0  0  0  0  0  0  0  0  0  0  0  0
  1  2  2  0
  2  3  1  0
  3  4  1  0
  4  5  1  0
  5  6  1  0
  5  7  1  0
  7  8  2  0
  8  9  1  0
  9 10  2  0
 10 11  1  0
 11 12  2  0
 12 13  1  0
 13 14  2  0
 14 15  1  0
 10 16  1  0
 16 17  2  0
  2 18  1  0
 18 19  1  0
 19 20  2  0
 20 21  1  0
 21 22  2  0
 22 23  1  0
 23 24  2  0
 23 25  1  0
 25 26  1  0
 26 27  1  0
 17  7  1  0
 24 19  1  0
 15 11  1  0
 27 22  1  0
  3 28  1  0
  4 29  1  0
  4 30  1  0
  5 31  1  0
  6 32  1  0
  8 33  1  0
  9 34  1  0
 12 35  1  0
 13 36  1  0
 14 37  1  0
 16 38  1  0
 17 39  1  0
 18 40  1  0
 20 41  1  0
 21 42  1  0
 24 43  1  0
 26 44  1  0
 26 45  1  0
M  END
>  <Energy>  (506) 
550.91324382052517

>  <compound_id>  (506) 
74302

>  <target_id>  (506) 
1

>  <reference_id>  (506) 
66

>  <inspiration_ids>  (506) 
[13, 66]

>  <energy_score>  (506) 
484.1262307667221

>  <distance_score>  (506) 
6.4213292888393445

>  <path>  (506) 
/opt/xchem-fragalysis-2/maxwin/BulkDock/SCRATCH/511017/C74302-P66/C74302-P66.minimised.mol

>  <scratch_subdir>  (506) 
/opt/xchem-fragalysis-2/maxwin/BulkDock/SCRATCH/511017/C74302-P66

>  <fragmenstein_runtime>  (506) 
13.816159963607788

>  <fragmenstein_outcome>  (506) 
too moved

>  <fragmenstein_mode>  (506) 
expansion

>  <fragmenstein_error>  (506) 


$$$$
C74307-P13
     RDKit          3D

 54 57  0  0  0  0  0  0  0  0999 V2000
    5.7235    1.8836   19.7972 O   0  0  0  0  0  0  0  0  0  0  0  0
    6.3921    0.8721   19.8477 C   0  0  0  0  0  0  0  0  0  0  0  0
    7.7062    0.7840   19.0429 C   0  0  0  0  0  0  0  0  0  0  0  0
    8.0179    0.9972   17.6576 N   0  0  0  0  0  0  0  0  0  0  0  0
    7.7032    2.1467   16.7039 C   0  0  0  0  0  0  0  0  0  0  0  0
    6.8448    3.4414   16.8767 S   0  0  0  0  0  0  0  0  0  0  0  0
    8.3590    1.6469   15.5330 N   0  0  0  0  0  0  0  0  0  0  0  0
   10.0521    2.3403   15.5362 C   0  0  0  0  0  0  0  0  0  0  0  0
   10.4270    3.9415   15.0315 C   0  0  0  0  0  0  0  0  0  0  0  0
    9.4422    4.8820   14.7120 C   0  0  0  0  0  0  0  0  0  0  0  0
    9.8255    6.1512   14.2804 C   0  0  0  0  0  0  0  0  0  0  0  0
   11.1776    6.4739   14.1527 C   0  0  0  0  0  0  0  0  0  0  0  0
   12.1578    5.5259   14.4486 C   0  0  0  0  0  0  0  0  0  0  0  0
   11.7885    4.2549   14.8837 C   0  0  0  0  0  0  0  0  0  0  0  0
    9.7108    1.7929   14.8812 C   0  0  0  0  0  0  0  0  0  0  0  0
   10.5819    0.2132   14.9083 C   0  0  0  0  0  0  0  0  0  0  0  0
   10.0921   -1.0306   15.2487 C   0  0  0  0  0  0  0  0  0  0  0  0
   11.1042   -2.0346   15.1729 C   0  0  0  0  0  0  0  0  0  0  0  0
   12.3191   -1.5238   14.7722 C   0  0  0  0  0  0  0  0  0  0  0  0
   12.2395    0.1560   14.4523 S   0  0  0  0  0  0  0  0  0  0  0  0
    6.2006   -0.4823   20.7643 N   0  0  0  0  0  0  0  0  0  0  0  0
    4.9331   -0.8697   22.1547 C   0  0  0  0  0  0  0  0  0  0  0  0
    4.7826   -0.4682   23.9818 C   0  0  0  0  0  0  0  0  0  0  0  0
    4.4202    0.8630   24.4680 C   0  0  0  0  0  0  0  0  0  0  0  0
    3.9727    1.1345   25.7660 C   0  0  0  0  0  0  0  0  0  0  0  0
    3.8383    0.0647   26.6034 C   0  0  0  0  0  0  0  0  0  0  0  0
    4.2165   -1.2035   26.2175 C   0  0  0  0  0  0  0  0  0  0  0  0
    4.7103   -1.5075   24.9430 C   0  0  0  0  0  0  0  0  0  0  0  0
    3.8993   -2.1271   27.1738 O   0  0  0  0  0  0  0  0  0  0  0  0
    3.2216   -1.2991   28.1460 C   0  0  0  0  0  0  0  0  0  0  0  0
    3.2597    0.1035   27.8324 O   0  0  0  0  0  0  0  0  0  0  0  0
    8.3212    1.5471   19.5375 H   0  0  0  0  0  0  0  0  0  0  0  0
    8.1748   -0.1521   19.3009 H   0  0  0  0  0  0  0  0  0  0  0  0
    8.5397    0.3056   17.1466 H   0  0  0  0  0  0  0  0  0  0  0  0
   10.8684    1.9062   16.2800 H   0  0  0  0  0  0  0  0  0  0  0  0
    9.7954    2.8996   16.5294 H   0  0  0  0  0  0  0  0  0  0  0  0
    8.3868    4.6487   14.7792 H   0  0  0  0  0  0  0  0  0  0  0  0
    9.0658    6.8915   14.0402 H   0  0  0  0  0  0  0  0  0  0  0  0
   11.4657    7.4666   13.8154 H   0  0  0  0  0  0  0  0  0  0  0  0
   13.2076    5.7823   14.3326 H   0  0  0  0  0  0  0  0  0  0  0  0
   12.5541    3.5148   15.0884 H   0  0  0  0  0  0  0  0  0  0  0  0
    9.8243    2.2603   13.7449 H   0  0  0  0  0  0  0  0  0  0  0  0
    9.1375    1.1467   14.0889 H   0  0  0  0  0  0  0  0  0  0  0  0
    9.0467   -1.2146   15.4616 H   0  0  0  0  0  0  0  0  0  0  0  0
   10.9470   -3.0905   15.3617 H   0  0  0  0  0  0  0  0  0  0  0  0
   13.2441   -2.0637   14.6195 H   0  0  0  0  0  0  0  0  0  0  0  0
    6.8782   -1.1644   20.5004 H   0  0  0  0  0  0  0  0  0  0  0  0
    4.3794   -0.0783   21.6726 H   0  0  0  0  0  0  0  0  0  0  0  0
    4.8294   -1.9697   22.1347 H   0  0  0  0  0  0  0  0  0  0  0  0
    4.3597    1.6883   23.7496 H   0  0  0  0  0  0  0  0  0  0  0  0
    3.6557    2.1284   26.0557 H   0  0  0  0  0  0  0  0  0  0  0  0
    4.9759   -2.5283   24.7160 H   0  0  0  0  0  0  0  0  0  0  0  0
    2.1752   -1.6204   28.2117 H   0  0  0  0  0  0  0  0  0  0  0  0
    3.6966   -1.4526   29.1214 H   0  0  0  0  0  0  0  0  0  0  0  0
  1  2  2  0
  2  3  1  0
  3  4  1  0
  4  5  1  0
  5  6  2  0
  5  7  1  0
  7  8  1  0
  8  9  1  0
  9 10  2  0
 10 11  1  0
 11 12  2  0
 12 13  1  0
 13 14  2  0
  7 15  1  0
 15 16  1  0
 16 17  2  0
 17 18  1  0
 18 19  2  0
 19 20  1  0
  2 21  1  0
 21 22  1  0
 22 23  1  0
 23 24  2  0
 24 25  1  0
 25 26  2  0
 26 27  1  0
 27 28  2  0
 27 29  1  0
 29 30  1  0
 30 31  1  0
 14  9  1  0
 20 16  1  0
 28 23  1  0
 31 26  1  0
  3 32  1  0
  3 33  1  0
  4 34  1  0
  8 35  1  0
  8 36  1  0
 10 37  1  0
 11 38  1  0
 12 39  1  0
 13 40  1  0
 14 41  1  0
 15 42  1  0
 15 43  1  0
 17 44  1  0
 18 45  1  0
 19 46  1  0
 21 47  1  0
 22 48  1  0
 22 49  1  0
 24 50  1  0
 25 51  1  0
 28 52  1  0
 30 53  1  0
 30 54  1  0
M  END
>  <Energy>  (507) 
738.42622450931128

>  <compound_id>  (507) 
74307

>  <target_id>  (507) 
1

>  <reference_id>  (507) 
13

>  <inspiration_ids>  (507) 
[13, 66]

>  <energy_score>  (507) 
669.8178268224383

>  <distance_score>  (507) 
8.378216055428696

>  <path>  (507) 
/opt/xchem-fragalysis-2/maxwin/BulkDock/SCRATCH/511017/C74307-P13/C74307-P13.minimised.mol

>  <scratch_subdir>  (507) 
/opt/xchem-fragalysis-2/maxwin/BulkDock/SCRATCH/511017/C74307-P13

>  <fragmenstein_runtime>  (507) 
18.53571391105652

>  <fragmenstein_outcome>  (507) 
too moved

>  <fragmenstein_mode>  (507) 
expansion

>  <fragmenstein_error>  (507) 


$$$$
C74307-P66
     RDKit          3D

 54 57  0  0  0  0  0  0  0  0999 V2000
    7.3543   -4.6554   23.3334 O   0  0  0  0  0  0  0  0  0  0  0  0
    7.1124   -3.6354   22.7169 C   0  0  0  0  0  0  0  0  0  0  0  0
    8.4249   -3.4000   21.1768 C   0  0  0  0  0  0  0  0  0  0  0  0
   10.5047   -3.7388   20.8135 N   0  0  0  0  0  0  0  0  0  0  0  0
   11.9096   -4.0799   21.9337 C   0  0  0  0  0  0  0  0  0  0  0  0
   12.0237   -4.0973   23.5961 S   0  0  0  0  0  0  0  0  0  0  0  0
   13.1399   -4.5510   21.0506 N   0  0  0  0  0  0  0  0  0  0  0  0
   14.2322   -3.9725   20.4963 C   0  0  0  0  0  0  0  0  0  0  0  0
   15.5421   -5.0987   20.0540 C   0  0  0  0  0  0  0  0  0  0  0  0
   16.6936   -4.6353   19.3968 C   0  0  0  0  0  0  0  0  0  0  0  0
   17.7049   -5.5387   19.0657 C   0  0  0  0  0  0  0  0  0  0  0  0
   17.5851   -6.8879   19.4032 C   0  0  0  0  0  0  0  0  0  0  0  0
   16.4607   -7.3427   20.0912 C   0  0  0  0  0  0  0  0  0  0  0  0
   15.4436   -6.4531   20.4297 C   0  0  0  0  0  0  0  0  0  0  0  0
   14.2285   -2.9921   20.6526 C   0  0  0  0  0  0  0  0  0  0  0  0
   14.5481   -2.3123   19.0175 C   0  0  0  0  0  0  0  0  0  0  0  0
   15.2261   -1.1259   18.7862 C   0  0  0  0  0  0  0  0  0  0  0  0
   15.3029   -0.8022   17.3977 C   0  0  0  0  0  0  0  0  0  0  0  0
   14.7140   -1.7570   16.6012 C   0  0  0  0  0  0  0  0  0  0  0  0
   14.0709   -3.0457   17.5124 S   0  0  0  0  0  0  0  0  0  0  0  0
    5.8809   -2.3759   23.1306 N   0  0  0  0  0  0  0  0  0  0  0  0
    4.8983   -2.2324   24.4516 C   0  0  0  0  0  0  0  0  0  0  0  0
    4.2314   -1.3124   25.6096 C   0  0  0  0  0  0  0  0  0  0  0  0
    4.6995   -0.1224   26.2188 C   0  0  0  0  0  0  0  0  0  0  0  0
    3.9334    0.6243   27.1433 C   0  0  0  0  0  0  0  0  0  0  0  0
    2.7150    0.1301   27.5283 C   0  0  0  0  0  0  0  0  0  0  0  0
    2.3083   -1.1002   27.0995 C   0  0  0  0  0  0  0  0  0  0  0  0
    3.0558   -1.8318   26.1853 C   0  0  0  0  0  0  0  0  0  0  0  0
    1.1103   -1.4600   27.6390 O   0  0  0  0  0  0  0  0  0  0  0  0
    0.7602   -0.2548   28.3435 C   0  0  0  0  0  0  0  0  0  0  0  0
    1.8179    0.7267   28.3558 O   0  0  0  0  0  0  0  0  0  0  0  0
    8.0144   -2.5657   20.7273 H   0  0  0  0  0  0  0  0  0  0  0  0
    8.1399   -4.3461   20.6399 H   0  0  0  0  0  0  0  0  0  0  0  0
   10.8233   -3.7386   19.9346 H   0  0  0  0  0  0  0  0  0  0  0  0
   14.7366   -4.4462   21.5154 H   0  0  0  0  0  0  0  0  0  0  0  0
   13.8423   -4.5093   19.5480 H   0  0  0  0  0  0  0  0  0  0  0  0
   16.8315   -3.5933   19.1350 H   0  0  0  0  0  0  0  0  0  0  0  0
   18.5927   -5.1909   18.5433 H   0  0  0  0  0  0  0  0  0  0  0  0
   18.3731   -7.5875   19.1374 H   0  0  0  0  0  0  0  0  0  0  0  0
   16.3744   -8.3925   20.3601 H   0  0  0  0  0  0  0  0  0  0  0  0
   14.5845   -6.8071   20.9939 H   0  0  0  0  0  0  0  0  0  0  0  0
   15.1010   -2.6587   21.4140 H   0  0  0  0  0  0  0  0  0  0  0  0
   13.6396   -2.1055   20.9365 H   0  0  0  0  0  0  0  0  0  0  0  0
   15.6306   -0.5072   19.5794 H   0  0  0  0  0  0  0  0  0  0  0  0
   15.7801    0.0866   17.0021 H   0  0  0  0  0  0  0  0  0  0  0  0
   14.6431   -1.7668   15.5215 H   0  0  0  0  0  0  0  0  0  0  0  0
    5.8381   -1.6816   22.3933 H   0  0  0  0  0  0  0  0  0  0  0  0
    5.8215   -1.8964   24.9193 H   0  0  0  0  0  0  0  0  0  0  0  0
    4.2031   -1.7515   23.7804 H   0  0  0  0  0  0  0  0  0  0  0  0
    5.6945    0.2608   26.0411 H   0  0  0  0  0  0  0  0  0  0  0  0
    4.3092    1.5559   27.5495 H   0  0  0  0  0  0  0  0  0  0  0  0
    2.7164   -2.8076   25.8824 H   0  0  0  0  0  0  0  0  0  0  0  0
   -0.1265    0.1866   27.8725 H   0  0  0  0  0  0  0  0  0  0  0  0
    0.5149   -0.5141   29.3794 H   0  0  0  0  0  0  0  0  0  0  0  0
  1  2  2  0
  2  3  1  0
  3  4  1  0
  4  5  1  0
  5  6  2  0
  5  7  1  0
  7  8  1  0
  8  9  1  0
  9 10  2  0
 10 11  1  0
 11 12  2  0
 12 13  1  0
 13 14  2  0
  7 15  1  0
 15 16  1  0
 16 17  2  0
 17 18  1  0
 18 19  2  0
 19 20  1  0
  2 21  1  0
 21 22  1  0
 22 23  1  0
 23 24  2  0
 24 25  1  0
 25 26  2  0
 26 27  1  0
 27 28  2  0
 27 29  1  0
 29 30  1  0
 30 31  1  0
 14  9  1  0
 20 16  1  0
 28 23  1  0
 31 26  1  0
  3 32  1  0
  3 33  1  0
  4 34  1  0
  8 35  1  0
  8 36  1  0
 10 37  1  0
 11 38  1  0
 12 39  1  0
 13 40  1  0
 14 41  1  0
 15 42  1  0
 15 43  1  0
 17 44  1  0
 18 45  1  0
 19 46  1  0
 21 47  1  0
 22 48  1  0
 22 49  1  0
 24 50  1  0
 25 51  1  0
 28 52  1  0
 30 53  1  0
 30 54  1  0
M  END
>  <Energy>  (508) 
1051.2482765999946

>  <compound_id>  (508) 
74307

>  <target_id>  (508) 
1

>  <reference_id>  (508) 
66

>  <inspiration_ids>  (508) 
[13, 66]

>  <energy_score>  (508) 
982.6398789131323

>  <distance_score>  (508) 
7.087729396285865

>  <path>  (508) 
/opt/xchem-fragalysis-2/maxwin/BulkDock/SCRATCH/511017/C74307-P66/C74307-P66.minimised.mol

>  <scratch_subdir>  (508) 
/opt/xchem-fragalysis-2/maxwin/BulkDock/SCRATCH/511017/C74307-P66

>  <fragmenstein_runtime>  (508) 
16.948060035705566

>  <fragmenstein_outcome>  (508) 
too moved

>  <fragmenstein_mode>  (508) 
expansion

>  <fragmenstein_error>  (508) 


$$$$
C74309-P13
     RDKit          3D

 40 43  0  0  0  0  0  0  0  0999 V2000
    9.9399    0.1963   25.0043 O   0  0  0  0  0  0  0  0  0  0  0  0
   10.6803   -0.5916   25.9585 S   0  0  0  0  0  0  0  0  0  0  0  0
   11.5956    0.0657   26.8724 O   0  0  0  0  0  0  0  0  0  0  0  0
    9.8460   -1.6997   26.7369 N   0  0  0  0  0  0  0  0  0  0  0  0
    8.7749   -1.9201   27.3752 C   0  0  0  0  0  0  0  0  0  0  0  0
    7.5256   -1.1481   27.4808 N   0  0  0  0  0  0  0  0  0  0  0  0
    7.1014    0.0201   26.8360 C   0  0  0  0  0  0  0  0  0  0  0  0
    7.5271    1.3013   27.1969 C   0  0  0  0  0  0  0  0  0  0  0  0
    6.6640    2.4143   27.0571 C   0  0  0  0  0  0  0  0  0  0  0  0
    5.3710    2.2177   26.6006 C   0  0  0  0  0  0  0  0  0  0  0  0
    4.9342    0.9754   26.2355 C   0  0  0  0  0  0  0  0  0  0  0  0
    5.7773   -0.1154   26.3088 C   0  0  0  0  0  0  0  0  0  0  0  0
    3.6210    0.9592   25.8836 O   0  0  0  0  0  0  0  0  0  0  0  0
    3.3006    2.3615   25.9812 C   0  0  0  0  0  0  0  0  0  0  0  0
    4.3944    3.1596   26.4888 O   0  0  0  0  0  0  0  0  0  0  0  0
    8.6249   -3.2281   28.1112 C   0  0  0  0  0  0  0  0  0  0  0  0
    9.5812   -3.6187   29.0431 C   0  0  0  0  0  0  0  0  0  0  0  0
    9.3379   -4.7279   29.8563 C   0  0  0  0  0  0  0  0  0  0  0  0
    8.1308   -5.4272   29.7547 C   0  0  0  0  0  0  0  0  0  0  0  0
    7.1639   -5.0358   28.8278 C   0  0  0  0  0  0  0  0  0  0  0  0
    7.4183   -3.9493   27.9937 C   0  0  0  0  0  0  0  0  0  0  0  0
   11.8515   -1.5989   24.9869 C   0  0  0  0  0  0  0  0  0  0  0  0
   13.0735   -1.2582   24.4144 C   0  0  0  0  0  0  0  0  0  0  0  0
   13.6201   -2.3007   23.6029 C   0  0  0  0  0  0  0  0  0  0  0  0
   12.8317   -3.4288   23.6264 C   0  0  0  0  0  0  0  0  0  0  0  0
   11.4830   -3.2413   24.6682 S   0  0  0  0  0  0  0  0  0  0  0  0
    6.9159   -1.5973   28.1531 H   0  0  0  0  0  0  0  0  0  0  0  0
    8.4948    1.4379   27.6739 H   0  0  0  0  0  0  0  0  0  0  0  0
    6.9943    3.4024   27.3608 H   0  0  0  0  0  0  0  0  0  0  0  0
    5.3815   -1.1007   26.0754 H   0  0  0  0  0  0  0  0  0  0  0  0
    2.4417    2.4795   26.6512 H   0  0  0  0  0  0  0  0  0  0  0  0
    3.0271    2.7318   24.9860 H   0  0  0  0  0  0  0  0  0  0  0  0
   10.5032   -3.0530   29.1543 H   0  0  0  0  0  0  0  0  0  0  0  0
   10.0841   -5.0372   30.5846 H   0  0  0  0  0  0  0  0  0  0  0  0
    7.9474   -6.2827   30.4007 H   0  0  0  0  0  0  0  0  0  0  0  0
    6.2321   -5.5876   28.7411 H   0  0  0  0  0  0  0  0  0  0  0  0
    6.6805   -3.6674   27.2439 H   0  0  0  0  0  0  0  0  0  0  0  0
   13.5005   -0.2686   24.5189 H   0  0  0  0  0  0  0  0  0  0  0  0
   14.5313   -2.2162   23.0248 H   0  0  0  0  0  0  0  0  0  0  0  0
   12.9919   -4.3611   23.1034 H   0  0  0  0  0  0  0  0  0  0  0  0
  1  2  2  0
  2  3  2  0
  2  4  1  0
  4  5  2  3
  5  6  1  0
  6  7  1  0
  7  8  2  0
  8  9  1  0
  9 10  2  0
 10 11  1  0
 11 12  2  0
 11 13  1  0
 13 14  1  0
 14 15  1  0
  5 16  1  0
 16 17  2  0
 17 18  1  0
 18 19  2  0
 19 20  1  0
 20 21  2  0
  2 22  1  0
 22 23  2  0
 23 24  1  0
 24 25  2  0
 25 26  1  0
 12  7  1  0
 21 16  1  0
 26 22  1  0
 15 10  1  0
  6 27  1  0
  8 28  1  0
  9 29  1  0
 12 30  1  0
 14 31  1  0
 14 32  1  0
 17 33  1  0
 18 34  1  0
 19 35  1  0
 20 36  1  0
 21 37  1  0
 23 38  1  0
 24 39  1  0
 25 40  1  0
M  END
>  <Energy>  (509) 
89.039539061186247

>  <compound_id>  (509) 
74309

>  <target_id>  (509) 
1

>  <reference_id>  (509) 
13

>  <inspiration_ids>  (509) 
[13, 66]

>  <energy_score>  (509) 
-27.692669398715168

>  <distance_score>  (509) 
8.453215517390992

>  <path>  (509) 
/opt/xchem-fragalysis-2/maxwin/BulkDock/SCRATCH/511017/C74309-P13/C74309-P13.minimised.mol

>  <scratch_subdir>  (509) 
/opt/xchem-fragalysis-2/maxwin/BulkDock/SCRATCH/511017/C74309-P13

>  <fragmenstein_runtime>  (509) 
14.420448303222656

>  <fragmenstein_outcome>  (509) 
too moved

>  <fragmenstein_mode>  (509) 
expansion

>  <fragmenstein_error>  (509) 


$$$$
C74309-P66
     RDKit          3D

 40 43  0  0  0  0  0  0  0  0999 V2000
    5.7762   -3.9345   19.8314 O   0  0  0  0  0  0  0  0  0  0  0  0
    5.6121   -2.6494   20.5187 S   0  0  0  0  0  0  0  0  0  0  0  0
    6.7354   -1.5724   20.5272 O   0  0  0  0  0  0  0  0  0  0  0  0
    5.4783   -2.1766   22.5557 N   0  0  0  0  0  0  0  0  0  0  0  0
    5.0091   -1.8884   23.9298 C   0  0  0  0  0  0  0  0  0  0  0  0
    5.8529   -1.5694   25.3918 N   0  0  0  0  0  0  0  0  0  0  0  0
    7.3987   -1.3798   25.7015 C   0  0  0  0  0  0  0  0  0  0  0  0
    7.6481   -2.1809   26.8516 C   0  0  0  0  0  0  0  0  0  0  0  0
    7.0654   -1.8483   28.1059 C   0  0  0  0  0  0  0  0  0  0  0  0
    6.5326   -0.5860   28.2454 C   0  0  0  0  0  0  0  0  0  0  0  0
    6.7930    0.3504   27.2869 C   0  0  0  0  0  0  0  0  0  0  0  0
    7.4833   -0.0143   26.1386 C   0  0  0  0  0  0  0  0  0  0  0  0
    6.2870    1.5724   27.5956 O   0  0  0  0  0  0  0  0  0  0  0  0
    5.5890    1.2643   28.8217 C   0  0  0  0  0  0  0  0  0  0  0  0
    5.8041   -0.0900   29.2760 O   0  0  0  0  0  0  0  0  0  0  0  0
    3.5886   -1.6773   24.4911 C   0  0  0  0  0  0  0  0  0  0  0  0
    3.2324   -2.6306   25.4108 C   0  0  0  0  0  0  0  0  0  0  0  0
    2.6676   -2.4191   26.7211 C   0  0  0  0  0  0  0  0  0  0  0  0
    2.4972   -1.1578   27.2483 C   0  0  0  0  0  0  0  0  0  0  0  0
    2.9359   -0.1196   26.4805 C   0  0  0  0  0  0  0  0  0  0  0  0
    3.4759   -0.4081   25.1991 C   0  0  0  0  0  0  0  0  0  0  0  0
    4.5256   -2.1912   18.4012 C   0  0  0  0  0  0  0  0  0  0  0  0
    4.6187   -1.3932   17.2719 C   0  0  0  0  0  0  0  0  0  0  0  0
    3.7733   -1.5499   16.0960 C   0  0  0  0  0  0  0  0  0  0  0  0
    2.9645   -2.6379   16.1298 C   0  0  0  0  0  0  0  0  0  0  0  0
    3.4770   -3.7668   17.2893 S   0  0  0  0  0  0  0  0  0  0  0  0
    5.1892   -1.5009   26.1491 H   0  0  0  0  0  0  0  0  0  0  0  0
    8.1175   -3.1492   26.7253 H   0  0  0  0  0  0  0  0  0  0  0  0
    7.0314   -2.5715   28.9101 H   0  0  0  0  0  0  0  0  0  0  0  0
    7.8536    0.7507   25.4721 H   0  0  0  0  0  0  0  0  0  0  0  0
    4.5154    1.4251   28.6736 H   0  0  0  0  0  0  0  0  0  0  0  0
    5.9397    1.9502   29.6011 H   0  0  0  0  0  0  0  0  0  0  0  0
    3.4715   -3.5978   25.0523 H   0  0  0  0  0  0  0  0  0  0  0  0
    2.3442   -3.2610   27.3216 H   0  0  0  0  0  0  0  0  0  0  0  0
    2.0687   -1.0068   28.2310 H   0  0  0  0  0  0  0  0  0  0  0  0
    2.9079    0.9041   26.8358 H   0  0  0  0  0  0  0  0  0  0  0  0
    3.9602    0.4339   24.7345 H   0  0  0  0  0  0  0  0  0  0  0  0
    5.5505   -0.8495   17.2196 H   0  0  0  0  0  0  0  0  0  0  0  0
    3.8446   -0.9181   15.2172 H   0  0  0  0  0  0  0  0  0  0  0  0
    2.2563   -2.9505   15.3746 H   0  0  0  0  0  0  0  0  0  0  0  0
  1  2  2  0
  2  3  2  0
  2  4  1  0
  4  5  2  3
  5  6  1  0
  6  7  1  0
  7  8  2  0
  8  9  1  0
  9 10  2  0
 10 11  1  0
 11 12  2  0
 11 13  1  0
 13 14  1  0
 14 15  1  0
  5 16  1  0
 16 17  2  0
 17 18  1  0
 18 19  2  0
 19 20  1  0
 20 21  2  0
  2 22  1  0
 22 23  2  0
 23 24  1  0
 24 25  2  0
 25 26  1  0
 12  7  1  0
 21 16  1  0
 26 22  1  0
 15 10  1  0
  6 27  1  0
  8 28  1  0
  9 29  1  0
 12 30  1  0
 14 31  1  0
 14 32  1  0
 17 33  1  0
 18 34  1  0
 19 35  1  0
 20 36  1  0
 21 37  1  0
 23 38  1  0
 24 39  1  0
 25 40  1  0
M  END
>  <Energy>  (510) 
638.25732519784879

>  <compound_id>  (510) 
74309

>  <target_id>  (510) 
1

>  <reference_id>  (510) 
66

>  <inspiration_ids>  (510) 
[13, 66]

>  <energy_score>  (510) 
521.5251167379402

>  <distance_score>  (510) 
8.418612158050669

>  <path>  (510) 
/opt/xchem-fragalysis-2/maxwin/BulkDock/SCRATCH/511017/C74309-P66/C74309-P66.minimised.mol

>  <scratch_subdir>  (510) 
/opt/xchem-fragalysis-2/maxwin/BulkDock/SCRATCH/511017/C74309-P66

>  <fragmenstein_runtime>  (510) 
14.007872581481934

>  <fragmenstein_outcome>  (510) 
too moved

>  <fragmenstein_mode>  (510) 
expansion

>  <fragmenstein_error>  (510) 


$$$$
C74314-P13
     RDKit          3D

 50 53  0  0  0  0  0  0  0  0999 V2000
    5.5502    4.4713   21.0509 O   0  0  0  0  0  0  0  0  0  0  0  0
    4.8696    3.4913   21.1571 C   0  0  0  0  0  0  0  0  0  0  0  0
    4.0196    3.0482   22.2317 N   0  0  0  0  0  0  0  0  0  0  0  0
    3.7964    3.5983   23.5569 C   0  0  0  0  0  0  0  0  0  0  0  0
    2.3858    3.5215   24.1065 C   0  0  0  0  0  0  0  0  0  0  0  0
    1.3008    4.0363   23.3647 C   0  0  0  0  0  0  0  0  0  0  0  0
   -0.0042    4.0314   23.8781 C   0  0  0  0  0  0  0  0  0  0  0  0
   -0.2027    3.5278   25.1433 C   0  0  0  0  0  0  0  0  0  0  0  0
    0.8404    3.0545   25.8975 C   0  0  0  0  0  0  0  0  0  0  0  0
    2.1397    3.0417   25.4126 C   0  0  0  0  0  0  0  0  0  0  0  0
    0.4250    2.5829   27.1050 O   0  0  0  0  0  0  0  0  0  0  0  0
   -0.9974    2.8420   27.0308 C   0  0  0  0  0  0  0  0  0  0  0  0
   -1.4006    3.4140   25.7717 O   0  0  0  0  0  0  0  0  0  0  0  0
    4.9812    2.4440   19.9797 C   0  0  0  0  0  0  0  0  0  0  0  0
    4.0843    1.6679   19.8259 O   0  0  0  0  0  0  0  0  0  0  0  0
    6.2157    2.6142   19.2516 N   0  0  0  0  0  0  0  0  0  0  0  0
    6.8040    1.8316   18.1588 C   0  0  0  0  0  0  0  0  0  0  0  0
    8.1419    2.4181   17.6002 C   0  0  0  0  0  0  0  0  0  0  0  0
    9.0183    2.5675   18.7257 O   0  0  0  0  0  0  0  0  0  0  0  0
    8.9067    1.6422   16.5370 C   0  0  0  0  0  0  0  0  0  0  0  0
    8.6177    0.3333   16.1631 C   0  0  0  0  0  0  0  0  0  0  0  0
    9.5350   -0.4244   15.4181 C   0  0  0  0  0  0  0  0  0  0  0  0
   10.7553    0.1161   14.9929 C   0  0  0  0  0  0  0  0  0  0  0  0
   11.8323   -0.7588   14.4854 C   0  0  0  0  0  0  0  0  0  0  0  0
   12.0229   -2.1105   14.7319 C   0  0  0  0  0  0  0  0  0  0  0  0
   13.2413   -2.6113   14.1917 C   0  0  0  0  0  0  0  0  0  0  0  0
   13.9305   -1.6467   13.4976 C   0  0  0  0  0  0  0  0  0  0  0  0
   13.1249   -0.1432   13.5298 S   0  0  0  0  0  0  0  0  0  0  0  0
   10.9389    1.4882   15.1823 C   0  0  0  0  0  0  0  0  0  0  0  0
   10.0269    2.2353   15.9370 C   0  0  0  0  0  0  0  0  0  0  0  0
    3.6569    2.1196   22.0082 H   0  0  0  0  0  0  0  0  0  0  0  0
    4.1256    4.6436   23.5530 H   0  0  0  0  0  0  0  0  0  0  0  0
    4.4749    3.0537   24.2225 H   0  0  0  0  0  0  0  0  0  0  0  0
    1.4736    4.4471   22.3706 H   0  0  0  0  0  0  0  0  0  0  0  0
   -0.8370    4.4158   23.2981 H   0  0  0  0  0  0  0  0  0  0  0  0
    2.9434    2.6563   26.0325 H   0  0  0  0  0  0  0  0  0  0  0  0
   -1.5322    1.8963   27.1756 H   0  0  0  0  0  0  0  0  0  0  0  0
   -1.2718    3.5313   27.8378 H   0  0  0  0  0  0  0  0  0  0  0  0
    6.7058    3.4348   19.6137 H   0  0  0  0  0  0  0  0  0  0  0  0
    6.0517    1.7399   17.3687 H   0  0  0  0  0  0  0  0  0  0  0  0
    6.9714    0.8323   18.5765 H   0  0  0  0  0  0  0  0  0  0  0  0
    7.9305    3.4239   17.2162 H   0  0  0  0  0  0  0  0  0  0  0  0
    9.8918    2.8897   18.4176 H   0  0  0  0  0  0  0  0  0  0  0  0
    7.6755   -0.1238   16.4415 H   0  0  0  0  0  0  0  0  0  0  0  0
    9.2816   -1.4521   15.1651 H   0  0  0  0  0  0  0  0  0  0  0  0
   11.3433   -2.7170   15.3177 H   0  0  0  0  0  0  0  0  0  0  0  0
   13.5927   -3.6272   14.3169 H   0  0  0  0  0  0  0  0  0  0  0  0
   14.8755   -1.7499   12.9825 H   0  0  0  0  0  0  0  0  0  0  0  0
   11.8362    1.9901   14.8302 H   0  0  0  0  0  0  0  0  0  0  0  0
   10.2541    3.2843   16.1271 H   0  0  0  0  0  0  0  0  0  0  0  0
  1  2  2  0
  2  3  1  0
  3  4  1  0
  4  5  1  0
  5  6  2  0
  6  7  1  0
  7  8  2  0
  8  9  1  0
  9 10  2  0
  9 11  1  0
 11 12  1  0
 12 13  1  0
  2 14  1  0
 14 15  2  0
 14 16  1  0
 16 17  1  0
 17 18  1  0
 18 19  1  0
 18 20  1  0
 20 21  2  0
 21 22  1  0
 22 23  2  0
 23 24  1  0
 24 25  2  0
 25 26  1  0
 26 27  2  0
 27 28  1  0
 23 29  1  0
 29 30  2  0
 10  5  1  0
 30 20  1  0
 13  8  1  0
 28 24  1  0
  3 31  1  0
  4 32  1  0
  4 33  1  0
  6 34  1  0
  7 35  1  0
 10 36  1  0
 12 37  1  0
 12 38  1  0
 16 39  1  0
 17 40  1  0
 17 41  1  0
 18 42  1  0
 19 43  1  0
 21 44  1  0
 22 45  1  0
 25 46  1  0
 26 47  1  0
 27 48  1  0
 29 49  1  0
 30 50  1  0
M  END
>  <Energy>  (511) 
109.06355886704928

>  <compound_id>  (511) 
74314

>  <target_id>  (511) 
1

>  <reference_id>  (511) 
13

>  <inspiration_ids>  (511) 
[13, 66]

>  <energy_score>  (511) 
-34.537300398017805

>  <distance_score>  (511) 
7.774305243766285

>  <path>  (511) 
/opt/xchem-fragalysis-2/maxwin/BulkDock/SCRATCH/511017/C74314-P13/C74314-P13.minimised.mol

>  <scratch_subdir>  (511) 
/opt/xchem-fragalysis-2/maxwin/BulkDock/SCRATCH/511017/C74314-P13

>  <fragmenstein_runtime>  (511) 
23.11290431022644

>  <fragmenstein_outcome>  (511) 
too moved

>  <fragmenstein_mode>  (511) 
expansion

>  <fragmenstein_error>  (511) 


$$$$
C74314-P66
     RDKit          3D

 50 53  0  0  0  0  0  0  0  0999 V2000
    5.8892   -0.9138   21.0361 O   0  0  0  0  0  0  0  0  0  0  0  0
    4.8366   -1.4881   21.0465 C   0  0  0  0  0  0  0  0  0  0  0  0
    4.0289   -2.0507   22.2144 N   0  0  0  0  0  0  0  0  0  0  0  0
    4.2874   -1.9580   23.8967 C   0  0  0  0  0  0  0  0  0  0  0  0
    3.5931   -1.2913   25.1696 C   0  0  0  0  0  0  0  0  0  0  0  0
    3.8089    0.0189   25.5820 C   0  0  0  0  0  0  0  0  0  0  0  0
    3.1890    0.6755   26.6680 C   0  0  0  0  0  0  0  0  0  0  0  0
    2.3256   -0.0574   27.4250 C   0  0  0  0  0  0  0  0  0  0  0  0
    2.1969   -1.3931   27.1855 C   0  0  0  0  0  0  0  0  0  0  0  0
    2.8700   -2.0149   26.1333 C   0  0  0  0  0  0  0  0  0  0  0  0
    1.3047   -1.9809   28.0311 O   0  0  0  0  0  0  0  0  0  0  0  0
    0.7939   -0.8197   28.7176 C   0  0  0  0  0  0  0  0  0  0  0  0
    1.5288    0.3872   28.4272 O   0  0  0  0  0  0  0  0  0  0  0  0
    4.2528   -1.5726   19.5498 C   0  0  0  0  0  0  0  0  0  0  0  0
    3.2012   -2.0809   19.2865 O   0  0  0  0  0  0  0  0  0  0  0  0
    5.2886   -0.9197   18.6466 N   0  0  0  0  0  0  0  0  0  0  0  0
    5.2616   -0.6273   17.1707 C   0  0  0  0  0  0  0  0  0  0  0  0
    6.7867   -0.5955   16.1655 C   0  0  0  0  0  0  0  0  0  0  0  0
    7.2842    0.7109   16.4958 O   0  0  0  0  0  0  0  0  0  0  0  0
    8.0360   -1.2332   15.0538 C   0  0  0  0  0  0  0  0  0  0  0  0
    9.2683   -1.8665   15.3565 C   0  0  0  0  0  0  0  0  0  0  0  0
   10.6375   -1.6562   14.8652 C   0  0  0  0  0  0  0  0  0  0  0  0
   10.9289   -0.4848   14.1806 C   0  0  0  0  0  0  0  0  0  0  0  0
   12.2849   -0.0172   13.8601 C   0  0  0  0  0  0  0  0  0  0  0  0
   12.7002    1.2676   13.5463 C   0  0  0  0  0  0  0  0  0  0  0  0
   14.0966    1.3556   13.2756 C   0  0  0  0  0  0  0  0  0  0  0  0
   14.7170    0.1346   13.3929 C   0  0  0  0  0  0  0  0  0  0  0  0
   13.6221   -1.0980   13.8323 S   0  0  0  0  0  0  0  0  0  0  0  0
    9.7932    0.2183   13.7807 C   0  0  0  0  0  0  0  0  0  0  0  0
    8.4462   -0.3031   14.0828 C   0  0  0  0  0  0  0  0  0  0  0  0
    3.2238   -2.5484   21.8557 H   0  0  0  0  0  0  0  0  0  0  0  0
    5.3626   -1.9557   24.0470 H   0  0  0  0  0  0  0  0  0  0  0  0
    3.8780   -2.9311   24.1447 H   0  0  0  0  0  0  0  0  0  0  0  0
    4.5058    0.5494   24.9974 H   0  0  0  0  0  0  0  0  0  0  0  0
    3.3684    1.7241   26.8657 H   0  0  0  0  0  0  0  0  0  0  0  0
    2.7126   -3.0635   25.9962 H   0  0  0  0  0  0  0  0  0  0  0  0
   -0.2558   -0.6735   28.4344 H   0  0  0  0  0  0  0  0  0  0  0  0
    0.8428   -1.0051   29.7964 H   0  0  0  0  0  0  0  0  0  0  0  0
    6.1081   -0.6649   19.2024 H   0  0  0  0  0  0  0  0  0  0  0  0
    4.8998    0.4090   17.1237 H   0  0  0  0  0  0  0  0  0  0  0  0
    4.4715   -1.2276   16.6984 H   0  0  0  0  0  0  0  0  0  0  0  0
    6.1007   -0.6846   15.3184 H   0  0  0  0  0  0  0  0  0  0  0  0
    7.1152    0.8919   17.4451 H   0  0  0  0  0  0  0  0  0  0  0  0
    9.4670   -1.9572   16.3982 H   0  0  0  0  0  0  0  0  0  0  0  0
   11.4304   -2.2620   15.2953 H   0  0  0  0  0  0  0  0  0  0  0  0
   12.0296    2.1176   13.5161 H   0  0  0  0  0  0  0  0  0  0  0  0
   14.6165    2.2678   13.0102 H   0  0  0  0  0  0  0  0  0  0  0  0
   15.7631   -0.0953   13.2450 H   0  0  0  0  0  0  0  0  0  0  0  0
    9.8869    0.9934   13.0299 H   0  0  0  0  0  0  0  0  0  0  0  0
    7.7645   -0.2244   13.2488 H   0  0  0  0  0  0  0  0  0  0  0  0
  1  2  2  0
  2  3  1  0
  3  4  1  0
  4  5  1  0
  5  6  2  0
  6  7  1  0
  7  8  2  0
  8  9  1  0
  9 10  2  0
  9 11  1  0
 11 12  1  0
 12 13  1  0
  2 14  1  0
 14 15  2  0
 14 16  1  0
 16 17  1  0
 17 18  1  0
 18 19  1  0
 18 20  1  0
 20 21  2  0
 21 22  1  0
 22 23  2  0
 23 24  1  0
 24 25  2  0
 25 26  1  0
 26 27  2  0
 27 28  1  0
 23 29  1  0
 29 30  2  0
 10  5  1  0
 30 20  1  0
 13  8  1  0
 28 24  1  0
  3 31  1  0
  4 32  1  0
  4 33  1  0
  6 34  1  0
  7 35  1  0
 10 36  1  0
 12 37  1  0
 12 38  1  0
 16 39  1  0
 17 40  1  0
 17 41  1  0
 18 42  1  0
 19 43  1  0
 21 44  1  0
 22 45  1  0
 25 46  1  0
 26 47  1  0
 27 48  1  0
 29 49  1  0
 30 50  1  0
M  END
>  <Energy>  (512) 
338.9062352468502

>  <compound_id>  (512) 
74314

>  <target_id>  (512) 
1

>  <reference_id>  (512) 
66

>  <inspiration_ids>  (512) 
[13, 66]

>  <energy_score>  (512) 
195.3053759817833

>  <distance_score>  (512) 
7.318102358228029

>  <path>  (512) 
/opt/xchem-fragalysis-2/maxwin/BulkDock/SCRATCH/511017/C74314-P66/C74314-P66.minimised.mol

>  <scratch_subdir>  (512) 
/opt/xchem-fragalysis-2/maxwin/BulkDock/SCRATCH/511017/C74314-P66

>  <fragmenstein_runtime>  (512) 
31.753681421279907

>  <fragmenstein_outcome>  (512) 
too moved

>  <fragmenstein_mode>  (512) 
expansion

>  <fragmenstein_error>  (512) 


$$$$
C74315-P13
     RDKit          3D

 39 42  0  0  0  0  0  0  0  0999 V2000
    3.6385   -0.0506   26.0808 O   0  0  0  0  0  0  0  0  0  0  0  0
    3.5645    0.2293   27.2082 C   0  0  0  0  0  0  0  0  0  0  0  0
    4.6123    0.1295   28.3319 N   0  0  0  0  0  0  0  0  0  0  0  0
    5.9537   -0.4298   28.3250 C   0  0  0  0  0  0  0  0  0  0  0  0
    7.0320    0.0137   27.3708 C   0  0  0  0  0  0  0  0  0  0  0  0
    7.2832    1.3070   26.9333 C   0  0  0  0  0  0  0  0  0  0  0  0
    8.4918    1.6215   26.1160 C   0  0  0  0  0  0  0  0  0  0  0  0
    9.4641    0.6683   25.6633 C   0  0  0  0  0  0  0  0  0  0  0  0
   10.6566    0.8988   24.6296 C   0  0  0  0  0  0  0  0  0  0  0  0
   11.9124    0.2772   24.5514 C   0  0  0  0  0  0  0  0  0  0  0  0
   12.8094    0.7746   23.5201 C   0  0  0  0  0  0  0  0  0  0  0  0
   12.2233    1.7793   22.8014 C   0  0  0  0  0  0  0  0  0  0  0  0
   10.6065    2.0251   23.3014 S   0  0  0  0  0  0  0  0  0  0  0  0
    9.2026   -0.6088   26.1776 C   0  0  0  0  0  0  0  0  0  0  0  0
    8.0405   -0.9167   26.9823 C   0  0  0  0  0  0  0  0  0  0  0  0
    2.2085    0.6745   27.7162 C   0  0  0  0  0  0  0  0  0  0  0  0
    1.5858   -0.0481   28.7535 C   0  0  0  0  0  0  0  0  0  0  0  0
    0.2161    0.1234   29.0262 C   0  0  0  0  0  0  0  0  0  0  0  0
   -0.5178    0.9762   28.2279 C   0  0  0  0  0  0  0  0  0  0  0  0
    0.0747    1.6820   27.2218 C   0  0  0  0  0  0  0  0  0  0  0  0
    1.4358    1.5810   26.9742 C   0  0  0  0  0  0  0  0  0  0  0  0
   -0.8265    2.3982   26.4933 O   0  0  0  0  0  0  0  0  0  0  0  0
   -2.0541    2.1053   27.1921 C   0  0  0  0  0  0  0  0  0  0  0  0
   -1.8560    1.1937   28.2930 O   0  0  0  0  0  0  0  0  0  0  0  0
    4.2387    0.5373   29.1791 H   0  0  0  0  0  0  0  0  0  0  0  0
    5.7899   -1.5036   28.1724 H   0  0  0  0  0  0  0  0  0  0  0  0
    6.3377   -0.3067   29.3445 H   0  0  0  0  0  0  0  0  0  0  0  0
    6.6089    2.1219   27.1859 H   0  0  0  0  0  0  0  0  0  0  0  0
    8.6048    2.6593   25.7984 H   0  0  0  0  0  0  0  0  0  0  0  0
   12.2004   -0.5106   25.2358 H   0  0  0  0  0  0  0  0  0  0  0  0
   13.8131    0.4052   23.3596 H   0  0  0  0  0  0  0  0  0  0  0  0
   12.6502    2.3763   22.0085 H   0  0  0  0  0  0  0  0  0  0  0  0
    9.8624   -1.4368   25.9198 H   0  0  0  0  0  0  0  0  0  0  0  0
    7.9362   -1.9590   27.2929 H   0  0  0  0  0  0  0  0  0  0  0  0
    2.1398   -0.8080   29.2993 H   0  0  0  0  0  0  0  0  0  0  0  0
   -0.2733   -0.4587   29.7997 H   0  0  0  0  0  0  0  0  0  0  0  0
    1.8865    2.1332   26.1537 H   0  0  0  0  0  0  0  0  0  0  0  0
   -2.4708    3.0428   27.5766 H   0  0  0  0  0  0  0  0  0  0  0  0
   -2.7652    1.6594   26.4874 H   0  0  0  0  0  0  0  0  0  0  0  0
  1  2  2  0
  2  3  1  0
  3  4  1  0
  4  5  1  0
  5  6  2  0
  6  7  1  0
  7  8  2  0
  8  9  1  0
  9 10  2  0
 10 11  1  0
 11 12  2  0
 12 13  1  0
  8 14  1  0
 14 15  2  0
  2 16  1  0
 16 17  2  0
 17 18  1  0
 18 19  2  0
 19 20  1  0
 20 21  2  0
 20 22  1  0
 22 23  1  0
 23 24  1  0
 15  5  1  0
 21 16  1  0
 13  9  1  0
 24 19  1  0
  3 25  1  0
  4 26  1  0
  4 27  1  0
  6 28  1  0
  7 29  1  0
 10 30  1  0
 11 31  1  0
 12 32  1  0
 14 33  1  0
 15 34  1  0
 17 35  1  0
 18 36  1  0
 21 37  1  0
 23 38  1  0
 23 39  1  0
M  END
>  <Energy>  (513) 
77.873522240063025

>  <compound_id>  (513) 
74315

>  <target_id>  (513) 
1

>  <reference_id>  (513) 
13

>  <inspiration_ids>  (513) 
[13, 66]

>  <energy_score>  (513) 
-11.743638284488839

>  <distance_score>  (513) 
6.617147513837724

>  <path>  (513) 
/opt/xchem-fragalysis-2/maxwin/BulkDock/SCRATCH/511017/C74315-P13/C74315-P13.minimised.mol

>  <scratch_subdir>  (513) 
/opt/xchem-fragalysis-2/maxwin/BulkDock/SCRATCH/511017/C74315-P13

>  <fragmenstein_runtime>  (513) 
8.592360973358154

>  <fragmenstein_outcome>  (513) 
too moved

>  <fragmenstein_mode>  (513) 
expansion

>  <fragmenstein_error>  (513) 


$$$$
C74315-P66
     RDKit          3D

 39 42  0  0  0  0  0  0  0  0999 V2000
    3.9933   -0.4213   27.8624 O   0  0  0  0  0  0  0  0  0  0  0  0
    3.5717   -0.1594   26.7701 C   0  0  0  0  0  0  0  0  0  0  0  0
    3.9318   -0.6789   25.4686 N   0  0  0  0  0  0  0  0  0  0  0  0
    4.8331   -1.7341   25.0952 C   0  0  0  0  0  0  0  0  0  0  0  0
    5.5619   -2.1990   23.8460 C   0  0  0  0  0  0  0  0  0  0  0  0
    5.3705   -2.0124   22.4691 C   0  0  0  0  0  0  0  0  0  0  0  0
    6.1704   -2.6522   21.1260 C   0  0  0  0  0  0  0  0  0  0  0  0
    7.6818   -3.4915   21.2910 C   0  0  0  0  0  0  0  0  0  0  0  0
    9.1628   -3.1996   20.0996 C   0  0  0  0  0  0  0  0  0  0  0  0
    8.7589   -1.8456   18.8285 C   0  0  0  0  0  0  0  0  0  0  0  0
   10.0836   -2.2212   17.0369 C   0  0  0  0  0  0  0  0  0  0  0  0
   11.6587   -3.1023   17.7921 C   0  0  0  0  0  0  0  0  0  0  0  0
   11.6129   -3.6411   20.2188 S   0  0  0  0  0  0  0  0  0  0  0  0
    7.3886   -4.0336   22.7309 C   0  0  0  0  0  0  0  0  0  0  0  0
    6.6063   -3.3076   23.8972 C   0  0  0  0  0  0  0  0  0  0  0  0
    2.4298    0.7805   26.8511 C   0  0  0  0  0  0  0  0  0  0  0  0
    2.5481    2.1502   26.5861 C   0  0  0  0  0  0  0  0  0  0  0  0
    1.4218    2.9814   26.6542 C   0  0  0  0  0  0  0  0  0  0  0  0
    0.2148    2.4167   27.0138 C   0  0  0  0  0  0  0  0  0  0  0  0
    0.1091    1.0910   27.3565 C   0  0  0  0  0  0  0  0  0  0  0  0
    1.2052    0.2528   27.3200 C   0  0  0  0  0  0  0  0  0  0  0  0
   -1.1707    0.7343   27.6507 O   0  0  0  0  0  0  0  0  0  0  0  0
   -1.8639    1.9807   27.4181 C   0  0  0  0  0  0  0  0  0  0  0  0
   -0.9809    3.0609   27.0572 O   0  0  0  0  0  0  0  0  0  0  0  0
    3.4217   -0.1643   24.7512 H   0  0  0  0  0  0  0  0  0  0  0  0
    5.6025   -1.6186   25.8678 H   0  0  0  0  0  0  0  0  0  0  0  0
    4.1534   -2.5666   25.3094 H   0  0  0  0  0  0  0  0  0  0  0  0
    4.7073   -1.2061   22.2483 H   0  0  0  0  0  0  0  0  0  0  0  0
    6.4647   -1.7626   20.5530 H   0  0  0  0  0  0  0  0  0  0  0  0
    8.1594   -0.8920   18.9812 H   0  0  0  0  0  0  0  0  0  0  0  0
   10.0792   -1.7651   16.0453 H   0  0  0  0  0  0  0  0  0  0  0  0
   12.6299   -3.3323   17.3686 H   0  0  0  0  0  0  0  0  0  0  0  0
    7.6931   -5.0291   23.0381 H   0  0  0  0  0  0  0  0  0  0  0  0
    7.1615   -3.2219   24.8386 H   0  0  0  0  0  0  0  0  0  0  0  0
    3.5124    2.5827   26.3569 H   0  0  0  0  0  0  0  0  0  0  0  0
    1.4932    4.0397   26.4258 H   0  0  0  0  0  0  0  0  0  0  0  0
    1.1161   -0.7994   27.5728 H   0  0  0  0  0  0  0  0  0  0  0  0
   -2.5880    1.8317   26.6082 H   0  0  0  0  0  0  0  0  0  0  0  0
   -2.4072    2.2522   28.3269 H   0  0  0  0  0  0  0  0  0  0  0  0
  1  2  2  0
  2  3  1  0
  3  4  1  0
  4  5  1  0
  5  6  2  0
  6  7  1  0
  7  8  2  0
  8  9  1  0
  9 10  2  0
 10 11  1  0
 11 12  2  0
 12 13  1  0
  8 14  1  0
 14 15  2  0
  2 16  1  0
 16 17  2  0
 17 18  1  0
 18 19  2  0
 19 20  1  0
 20 21  2  0
 20 22  1  0
 22 23  1  0
 23 24  1  0
 15  5  1  0
 21 16  1  0
 13  9  1  0
 24 19  1  0
  3 25  1  0
  4 26  1  0
  4 27  1  0
  6 28  1  0
  7 29  1  0
 10 30  1  0
 11 31  1  0
 12 32  1  0
 14 33  1  0
 15 34  1  0
 17 35  1  0
 18 36  1  0
 21 37  1  0
 23 38  1  0
 23 39  1  0
M  END
>  <Energy>  (514) 
986.37074868875436

>  <compound_id>  (514) 
74315

>  <target_id>  (514) 
1

>  <reference_id>  (514) 
66

>  <inspiration_ids>  (514) 
[13, 66]

>  <energy_score>  (514) 
907.3412367570961

>  <distance_score>  (514) 
5.4985661862515025

>  <path>  (514) 
/opt/xchem-fragalysis-2/maxwin/BulkDock/SCRATCH/511017/C74315-P66/C74315-P66.minimised.mol

>  <scratch_subdir>  (514) 
/opt/xchem-fragalysis-2/maxwin/BulkDock/SCRATCH/511017/C74315-P66

>  <fragmenstein_runtime>  (514) 
11.286948919296265

>  <fragmenstein_outcome>  (514) 
too moved

>  <fragmenstein_mode>  (514) 
expansion

>  <fragmenstein_error>  (514) 


$$$$
C73513-P13
     RDKit          3D

 46 49  0  0  0  0  0  0  0  0999 V2000
    2.7973   -4.0926   29.5454 C   0  0  0  0  0  0  0  0  0  0  0  0
    2.7883   -3.5573   28.0996 C   0  0  0  0  0  0  0  0  0  0  0  0
    2.0476   -4.4969   27.2964 O   0  0  0  0  0  0  0  0  0  0  0  0
    4.2534   -3.6542   27.5567 C   0  0  0  0  0  0  0  0  0  0  0  0
    4.4723   -3.3536   26.1477 N   0  0  0  0  0  0  0  0  0  0  0  0
    5.3113   -2.3942   25.5188 C   0  0  0  0  0  0  0  0  0  0  0  0
    5.9967   -1.5308   25.9845 O   0  0  0  0  0  0  0  0  0  0  0  0
    5.2708   -2.3845   24.0074 C   0  0  0  0  0  0  0  0  0  0  0  0
    4.6664   -1.3369   23.3659 C   0  0  0  0  0  0  0  0  0  0  0  0
    5.0173   -0.8477   21.7954 C   0  0  0  0  0  0  0  0  0  0  0  0
    6.2905   -1.3947   20.6541 C   0  0  0  0  0  0  0  0  0  0  0  0
    7.1224   -0.2434   19.4516 C   0  0  0  0  0  0  0  0  0  0  0  0
    6.6292    0.1438   18.0307 C   0  0  0  0  0  0  0  0  0  0  0  0
    7.3892    1.0359   17.3230 C   0  0  0  0  0  0  0  0  0  0  0  0
    8.4823    1.7894   18.3234 S   0  0  0  0  0  0  0  0  0  0  0  0
    8.1881    0.6406   19.5760 C   0  0  0  0  0  0  0  0  0  0  0  0
    6.5575   -2.9192   21.3434 C   0  0  0  0  0  0  0  0  0  0  0  0
    6.0491   -3.1916   22.9866 C   0  0  0  0  0  0  0  0  0  0  0  0
    2.0797   -2.1927   28.0895 C   0  0  0  0  0  0  0  0  0  0  0  0
    2.7746   -0.9846   27.8364 C   0  0  0  0  0  0  0  0  0  0  0  0
    2.1054    0.2475   27.7307 C   0  0  0  0  0  0  0  0  0  0  0  0
    0.7372    0.2599   27.8783 C   0  0  0  0  0  0  0  0  0  0  0  0
    0.0455   -0.8837   28.1829 C   0  0  0  0  0  0  0  0  0  0  0  0
    0.6820   -2.1057   28.3181 C   0  0  0  0  0  0  0  0  0  0  0  0
   -1.2946   -0.6640   28.2863 O   0  0  0  0  0  0  0  0  0  0  0  0
   -1.3737    0.6959   27.8098 C   0  0  0  0  0  0  0  0  0  0  0  0
   -0.0811    1.3354   27.7199 O   0  0  0  0  0  0  0  0  0  0  0  0
    3.3682   -3.4371   30.2123 H   0  0  0  0  0  0  0  0  0  0  0  0
    3.2336   -5.0977   29.5883 H   0  0  0  0  0  0  0  0  0  0  0  0
    1.7830   -4.1898   29.9499 H   0  0  0  0  0  0  0  0  0  0  0  0
    1.1947   -4.6530   27.7423 H   0  0  0  0  0  0  0  0  0  0  0  0
    4.9199   -3.0095   28.1410 H   0  0  0  0  0  0  0  0  0  0  0  0
    4.6131   -4.6842   27.6726 H   0  0  0  0  0  0  0  0  0  0  0  0
    4.1072   -3.9823   25.4442 H   0  0  0  0  0  0  0  0  0  0  0  0
    4.2705   -0.6061   24.0833 H   0  0  0  0  0  0  0  0  0  0  0  0
    4.4874    0.0963   21.5346 H   0  0  0  0  0  0  0  0  0  0  0  0
    5.7948   -0.3528   17.5459 H   0  0  0  0  0  0  0  0  0  0  0  0
    7.3070    1.3529   16.3054 H   0  0  0  0  0  0  0  0  0  0  0  0
    8.8359    0.8274   20.4114 H   0  0  0  0  0  0  0  0  0  0  0  0
    7.3214   -3.6677   21.0717 H   0  0  0  0  0  0  0  0  0  0  0  0
    6.3448   -4.1929   23.3827 H   0  0  0  0  0  0  0  0  0  0  0  0
    3.8516   -0.9817   27.6757 H   0  0  0  0  0  0  0  0  0  0  0  0
    2.6495    1.1556   27.4948 H   0  0  0  0  0  0  0  0  0  0  0  0
    0.0744   -2.9788   28.5292 H   0  0  0  0  0  0  0  0  0  0  0  0
   -2.0010    1.2703   28.4975 H   0  0  0  0  0  0  0  0  0  0  0  0
   -1.8449    0.7007   26.8189 H   0  0  0  0  0  0  0  0  0  0  0  0
  1  2  1  0
  2  3  1  0
  2  4  1  0
  4  5  1  0
  5  6  1  0
  6  7  2  0
  6  8  1  0
  8  9  2  0
  9 10  1  0
 10 11  2  0
 11 12  1  0
 12 13  1  0
 13 14  2  0
 14 15  1  0
 15 16  1  0
 11 17  1  0
 17 18  2  0
  2 19  1  0
 19 20  2  0
 20 21  1  0
 21 22  2  0
 22 23  1  0
 23 24  2  0
 23 25  1  0
 25 26  1  0
 26 27  1  0
 18  8  1  0
 24 19  1  0
 16 12  2  0
 27 22  1  0
  1 28  1  0
  1 29  1  0
  1 30  1  0
  3 31  1  0
  4 32  1  0
  4 33  1  0
  5 34  1  0
  9 35  1  0
 10 36  1  0
 13 37  1  0
 14 38  1  0
 16 39  1  0
 17 40  1  0
 18 41  1  0
 20 42  1  0
 21 43  1  0
 24 44  1  0
 26 45  1  0
 26 46  1  0
M  END
>  <Energy>  (515) 
321.8799748504839

>  <compound_id>  (515) 
73513

>  <target_id>  (515) 
1

>  <reference_id>  (515) 
13

>  <inspiration_ids>  (515) 
[13, 66]

>  <energy_score>  (515) 
184.88721816846794

>  <distance_score>  (515) 
5.848350810172865

>  <path>  (515) 
/opt/xchem-fragalysis-2/maxwin/BulkDock/SCRATCH/511017/C73513-P13/C73513-P13.minimised.mol

>  <scratch_subdir>  (515) 
/opt/xchem-fragalysis-2/maxwin/BulkDock/SCRATCH/511017/C73513-P13

>  <fragmenstein_runtime>  (515) 
10.077852487564087

>  <fragmenstein_outcome>  (515) 
too moved

>  <fragmenstein_mode>  (515) 
expansion

>  <fragmenstein_error>  (515) 


$$$$
C73513-P66
     RDKit          3D

 46 49  0  0  0  0  0  0  0  0999 V2000
    3.2334   -1.7895   28.5757 C   0  0  0  0  0  0  0  0  0  0  0  0
    2.5069   -1.7816   27.1864 C   0  0  0  0  0  0  0  0  0  0  0  0
    1.4972   -2.7820   27.3936 O   0  0  0  0  0  0  0  0  0  0  0  0
    3.5651   -2.3644   26.1366 C   0  0  0  0  0  0  0  0  0  0  0  0
    4.0425   -2.4024   24.7256 N   0  0  0  0  0  0  0  0  0  0  0  0
    4.5391   -1.3191   23.8007 C   0  0  0  0  0  0  0  0  0  0  0  0
    4.5178   -0.2054   24.1076 O   0  0  0  0  0  0  0  0  0  0  0  0
    5.4647   -1.5145   22.0220 C   0  0  0  0  0  0  0  0  0  0  0  0
    5.9920   -0.1698   21.1530 C   0  0  0  0  0  0  0  0  0  0  0  0
    7.0758    0.3720   19.7159 C   0  0  0  0  0  0  0  0  0  0  0  0
    7.4858   -0.1818   18.5039 C   0  0  0  0  0  0  0  0  0  0  0  0
    6.9085   -0.4932   16.6810 C   0  0  0  0  0  0  0  0  0  0  0  0
    5.4384   -0.7795   16.0008 C   0  0  0  0  0  0  0  0  0  0  0  0
    5.3483   -1.3817   14.7394 C   0  0  0  0  0  0  0  0  0  0  0  0
    6.8908   -1.7852   14.1828 S   0  0  0  0  0  0  0  0  0  0  0  0
    7.6581   -1.1681   15.5971 C   0  0  0  0  0  0  0  0  0  0  0  0
    6.9220   -1.0393   19.4136 C   0  0  0  0  0  0  0  0  0  0  0  0
    6.1320   -2.0726   20.8626 C   0  0  0  0  0  0  0  0  0  0  0  0
    1.8861   -0.3879   27.1497 C   0  0  0  0  0  0  0  0  0  0  0  0
    2.6352    0.7373   26.7372 C   0  0  0  0  0  0  0  0  0  0  0  0
    2.0582    2.0163   26.6875 C   0  0  0  0  0  0  0  0  0  0  0  0
    0.7360    2.1512   27.0543 C   0  0  0  0  0  0  0  0  0  0  0  0
    0.0044    1.0852   27.5112 C   0  0  0  0  0  0  0  0  0  0  0  0
    0.5551   -0.1771   27.6016 C   0  0  0  0  0  0  0  0  0  0  0  0
   -1.2826    1.4211   27.8000 O   0  0  0  0  0  0  0  0  0  0  0  0
   -1.2920    2.8122   27.4095 C   0  0  0  0  0  0  0  0  0  0  0  0
    0.0002    3.2922   26.9836 O   0  0  0  0  0  0  0  0  0  0  0  0
    2.5402   -1.5482   29.3924 H   0  0  0  0  0  0  0  0  0  0  0  0
    3.6304   -2.7822   28.8141 H   0  0  0  0  0  0  0  0  0  0  0  0
    4.0617   -1.0725   28.6133 H   0  0  0  0  0  0  0  0  0  0  0  0
    0.8772   -2.5911   26.6711 H   0  0  0  0  0  0  0  0  0  0  0  0
    4.3905   -1.6981   26.4439 H   0  0  0  0  0  0  0  0  0  0  0  0
    3.8467   -3.2657   26.5919 H   0  0  0  0  0  0  0  0  0  0  0  0
    4.0736   -3.2443   24.2399 H   0  0  0  0  0  0  0  0  0  0  0  0
    5.2239    0.5963   21.4131 H   0  0  0  0  0  0  0  0  0  0  0  0
    7.4657    1.4095   19.8573 H   0  0  0  0  0  0  0  0  0  0  0  0
    4.6017   -1.0689   16.6365 H   0  0  0  0  0  0  0  0  0  0  0  0
    4.4617   -1.7172   14.2204 H   0  0  0  0  0  0  0  0  0  0  0  0
    8.6822   -1.5149   15.5638 H   0  0  0  0  0  0  0  0  0  0  0  0
    6.2309   -1.4561   18.5483 H   0  0  0  0  0  0  0  0  0  0  0  0
    5.6712   -2.9903   20.4934 H   0  0  0  0  0  0  0  0  0  0  0  0
    3.6617    0.6118   26.3936 H   0  0  0  0  0  0  0  0  0  0  0  0
    2.6254    2.8646   26.3215 H   0  0  0  0  0  0  0  0  0  0  0  0
   -0.0537   -0.9949   27.9746 H   0  0  0  0  0  0  0  0  0  0  0  0
   -1.6229    3.4175   28.2580 H   0  0  0  0  0  0  0  0  0  0  0  0
   -2.0050    2.9405   26.5865 H   0  0  0  0  0  0  0  0  0  0  0  0
  1  2  1  0
  2  3  1  0
  2  4  1  0
  4  5  1  0
  5  6  1  0
  6  7  2  0
  6  8  1  0
  8  9  2  0
  9 10  1  0
 10 11  2  0
 11 12  1  0
 12 13  1  0
 13 14  2  0
 14 15  1  0
 15 16  1  0
 11 17  1  0
 17 18  2  0
  2 19  1  0
 19 20  2  0
 20 21  1  0
 21 22  2  0
 22 23  1  0
 23 24  2  0
 23 25  1  0
 25 26  1  0
 26 27  1  0
 18  8  1  0
 24 19  1  0
 16 12  2  0
 27 22  1  0
  1 28  1  0
  1 29  1  0
  1 30  1  0
  3 31  1  0
  4 32  1  0
  4 33  1  0
  5 34  1  0
  9 35  1  0
 10 36  1  0
 13 37  1  0
 14 38  1  0
 16 39  1  0
 17 40  1  0
 18 41  1  0
 20 42  1  0
 21 43  1  0
 24 44  1  0
 26 45  1  0
 26 46  1  0
M  END
>  <Energy>  (516) 
719.05858527304804

>  <compound_id>  (516) 
73513

>  <target_id>  (516) 
1

>  <reference_id>  (516) 
66

>  <inspiration_ids>  (516) 
[13, 66]

>  <energy_score>  (516) 
582.0658285910356

>  <distance_score>  (516) 
5.708598160808551

>  <path>  (516) 
/opt/xchem-fragalysis-2/maxwin/BulkDock/SCRATCH/511017/C73513-P66/C73513-P66.minimised.mol

>  <scratch_subdir>  (516) 
/opt/xchem-fragalysis-2/maxwin/BulkDock/SCRATCH/511017/C73513-P66

>  <fragmenstein_runtime>  (516) 
11.111523389816284

>  <fragmenstein_outcome>  (516) 
too moved

>  <fragmenstein_mode>  (516) 
expansion

>  <fragmenstein_error>  (516) 


$$$$
C73514-P13
     RDKit          3D

 41 44  0  0  0  0  0  0  0  0999 V2000
    3.0340    0.0450   26.2606 O   0  0  0  0  0  0  0  0  0  0  0  0
    3.5066   -0.9950   26.5093 C   0  0  0  0  0  0  0  0  0  0  0  0
    4.3176   -1.9448   25.5940 N   0  0  0  0  0  0  0  0  0  0  0  0
    4.6402   -1.8571   24.1046 C   0  0  0  0  0  0  0  0  0  0  0  0
    4.9046   -0.5624   23.2658 C   0  0  0  0  0  0  0  0  0  0  0  0
    4.7832    0.4947   24.4510 C   0  0  0  0  0  0  0  0  0  0  0  0
    4.2401    1.7622   24.3740 C   0  0  0  0  0  0  0  0  0  0  0  0
    3.8766    2.0192   23.0954 C   0  0  0  0  0  0  0  0  0  0  0  0
    4.2306    1.0177   21.7144 C   0  0  0  0  0  0  0  0  0  0  0  0
    4.9672   -0.4069   21.4677 C   0  0  0  0  0  0  0  0  0  0  0  0
    6.4650    0.2089   20.1726 C   0  0  0  0  0  0  0  0  0  0  0  0
    6.8443   -0.0462   18.6226 C   0  0  0  0  0  0  0  0  0  0  0  0
    7.8793    0.5004   17.8281 C   0  0  0  0  0  0  0  0  0  0  0  0
    8.3095    1.9415   18.4995 S   0  0  0  0  0  0  0  0  0  0  0  0
    7.5940    1.3210   19.9219 C   0  0  0  0  0  0  0  0  0  0  0  0
    3.4143   -1.8094   27.7344 N   0  0  0  0  0  0  0  0  0  0  0  0
    2.6699   -1.6185   28.8943 C   0  0  0  0  0  0  0  0  0  0  0  0
    2.5862   -0.2812   29.3543 C   0  0  0  0  0  0  0  0  0  0  0  0
    1.4221    0.2218   29.9372 C   0  0  0  0  0  0  0  0  0  0  0  0
    0.3441   -0.6247   29.9922 C   0  0  0  0  0  0  0  0  0  0  0  0
    0.4372   -1.9462   29.6051 C   0  0  0  0  0  0  0  0  0  0  0  0
    1.6046   -2.4992   29.1055 C   0  0  0  0  0  0  0  0  0  0  0  0
   -0.7727   -2.5728   29.6592 O   0  0  0  0  0  0  0  0  0  0  0  0
   -1.6363   -1.4415   29.8972 C   0  0  0  0  0  0  0  0  0  0  0  0
   -0.9238   -0.2669   30.3332 O   0  0  0  0  0  0  0  0  0  0  0  0
    4.5106   -2.7957   26.0858 H   0  0  0  0  0  0  0  0  0  0  0  0
    3.7131   -2.1698   23.6419 H   0  0  0  0  0  0  0  0  0  0  0  0
    5.4692   -2.5476   23.9992 H   0  0  0  0  0  0  0  0  0  0  0  0
    5.1963    0.2073   25.4166 H   0  0  0  0  0  0  0  0  0  0  0  0
    4.0576    2.3990   25.2221 H   0  0  0  0  0  0  0  0  0  0  0  0
    3.1979    2.8575   22.8988 H   0  0  0  0  0  0  0  0  0  0  0  0
    3.3094    1.2649   21.1692 H   0  0  0  0  0  0  0  0  0  0  0  0
    6.1733   -0.6325   17.9926 H   0  0  0  0  0  0  0  0  0  0  0  0
    8.0811    0.2907   16.7855 H   0  0  0  0  0  0  0  0  0  0  0  0
    8.4137    1.5912   20.5683 H   0  0  0  0  0  0  0  0  0  0  0  0
    3.8712   -2.6862   27.5820 H   0  0  0  0  0  0  0  0  0  0  0  0
    3.3891    0.4175   29.1202 H   0  0  0  0  0  0  0  0  0  0  0  0
    1.3368    1.2665   30.2116 H   0  0  0  0  0  0  0  0  0  0  0  0
    1.5857   -3.4961   28.6830 H   0  0  0  0  0  0  0  0  0  0  0  0
   -2.3553   -1.7161   30.6760 H   0  0  0  0  0  0  0  0  0  0  0  0
   -2.1779   -1.2066   28.9727 H   0  0  0  0  0  0  0  0  0  0  0  0
  1  2  2  0
  2  3  1  0
  3  4  1  0
  4  5  1  0
  5  6  2  0
  6  7  1  0
  7  8  2  0
  8  9  1  0
  9 10  2  0
 10 11  1  0
 11 12  1  0
 12 13  2  0
 13 14  1  0
 14 15  1  0
  2 16  1  0
 16 17  1  0
 17 18  2  0
 18 19  1  0
 19 20  2  0
 20 21  1  0
 21 22  2  0
 21 23  1  0
 23 24  1  0
 24 25  1  0
 10  5  1  0
 15 11  2  0
 22 17  1  0
 25 20  1  0
  3 26  1  0
  4 27  1  0
  4 28  1  0
  6 29  1  0
  7 30  1  0
  8 31  1  0
  9 32  1  0
 12 33  1  0
 13 34  1  0
 15 35  1  0
 16 36  1  0
 18 37  1  0
 19 38  1  0
 22 39  1  0
 24 40  1  0
 24 41  1  0
M  END
>  <Energy>  (517) 
475.56173214460216

>  <compound_id>  (517) 
73514

>  <target_id>  (517) 
1

>  <reference_id>  (517) 
13

>  <inspiration_ids>  (517) 
[13, 66]

>  <energy_score>  (517) 
438.07803536436575

>  <distance_score>  (517) 
6.225176735392822

>  <path>  (517) 
/opt/xchem-fragalysis-2/maxwin/BulkDock/SCRATCH/511017/C73514-P13/C73514-P13.minimised.mol

>  <scratch_subdir>  (517) 
/opt/xchem-fragalysis-2/maxwin/BulkDock/SCRATCH/511017/C73514-P13

>  <fragmenstein_runtime>  (517) 
9.681787490844727

>  <fragmenstein_outcome>  (517) 
too moved

>  <fragmenstein_mode>  (517) 
expansion

>  <fragmenstein_error>  (517) 


$$$$
C73514-P66
     RDKit          3D

 41 44  0  0  0  0  0  0  0  0999 V2000
    6.2319   -2.8686   24.1263 O   0  0  0  0  0  0  0  0  0  0  0  0
    5.4690   -2.0895   23.6767 C   0  0  0  0  0  0  0  0  0  0  0  0
    5.4073   -1.5375   22.0922 N   0  0  0  0  0  0  0  0  0  0  0  0
    6.4795   -1.8372   20.7130 C   0  0  0  0  0  0  0  0  0  0  0  0
    7.5402   -0.5748   19.6677 C   0  0  0  0  0  0  0  0  0  0  0  0
    8.4822    0.3613   20.3306 C   0  0  0  0  0  0  0  0  0  0  0  0
    9.0381    1.7380   20.5107 C   0  0  0  0  0  0  0  0  0  0  0  0
    8.2910    2.6514   19.8358 C   0  0  0  0  0  0  0  0  0  0  0  0
    7.5304    1.9620   18.8295 C   0  0  0  0  0  0  0  0  0  0  0  0
    7.3988    0.2397   18.5280 C   0  0  0  0  0  0  0  0  0  0  0  0
    7.2477    0.0449   16.7049 C   0  0  0  0  0  0  0  0  0  0  0  0
    7.6199    1.6202   15.9341 C   0  0  0  0  0  0  0  0  0  0  0  0
    8.4567    1.5783   14.8180 C   0  0  0  0  0  0  0  0  0  0  0  0
    8.5775   -0.0602   14.2295 S   0  0  0  0  0  0  0  0  0  0  0  0
    7.5444   -0.9163   15.6538 C   0  0  0  0  0  0  0  0  0  0  0  0
    4.3943   -1.3003   24.3439 N   0  0  0  0  0  0  0  0  0  0  0  0
    4.0420   -1.1845   25.7098 C   0  0  0  0  0  0  0  0  0  0  0  0
    4.2498    0.0516   26.3569 C   0  0  0  0  0  0  0  0  0  0  0  0
    3.4697    0.4847   27.4408 C   0  0  0  0  0  0  0  0  0  0  0  0
    2.4579   -0.3416   27.8563 C   0  0  0  0  0  0  0  0  0  0  0  0
    2.2903   -1.5840   27.2990 C   0  0  0  0  0  0  0  0  0  0  0  0
    3.0838   -2.0282   26.2494 C   0  0  0  0  0  0  0  0  0  0  0  0
    1.2155   -2.2364   27.8279 O   0  0  0  0  0  0  0  0  0  0  0  0
    0.6605   -1.2040   28.6645 C   0  0  0  0  0  0  0  0  0  0  0  0
    1.5083   -0.0441   28.7824 O   0  0  0  0  0  0  0  0  0  0  0  0
    4.6054   -0.9319   21.9799 H   0  0  0  0  0  0  0  0  0  0  0  0
    5.7570   -2.5806   20.2319 H   0  0  0  0  0  0  0  0  0  0  0  0
    7.0759   -2.7988   20.9319 H   0  0  0  0  0  0  0  0  0  0  0  0
    7.4613    0.9492   20.4994 H   0  0  0  0  0  0  0  0  0  0  0  0
    9.8936    1.9448   21.1322 H   0  0  0  0  0  0  0  0  0  0  0  0
    8.4306    3.7193   19.8489 H   0  0  0  0  0  0  0  0  0  0  0  0
    7.1356    2.6718   18.1141 H   0  0  0  0  0  0  0  0  0  0  0  0
    7.4012    2.5654   16.3944 H   0  0  0  0  0  0  0  0  0  0  0  0
    8.9237    2.3980   14.2878 H   0  0  0  0  0  0  0  0  0  0  0  0
    7.6724   -1.9734   15.5051 H   0  0  0  0  0  0  0  0  0  0  0  0
    3.9869   -0.6695   23.6802 H   0  0  0  0  0  0  0  0  0  0  0  0
    5.0256    0.7101   25.9916 H   0  0  0  0  0  0  0  0  0  0  0  0
    3.6257    1.4576   27.8897 H   0  0  0  0  0  0  0  0  0  0  0  0
    2.8706   -2.9492   25.7407 H   0  0  0  0  0  0  0  0  0  0  0  0
    0.4978   -1.6183   29.6657 H   0  0  0  0  0  0  0  0  0  0  0  0
   -0.3081   -0.8954   28.2523 H   0  0  0  0  0  0  0  0  0  0  0  0
  1  2  2  0
  2  3  1  0
  3  4  1  0
  4  5  1  0
  5  6  2  0
  6  7  1  0
  7  8  2  0
  8  9  1  0
  9 10  2  0
 10 11  1  0
 11 12  1  0
 12 13  2  0
 13 14  1  0
 14 15  1  0
  2 16  1  0
 16 17  1  0
 17 18  2  0
 18 19  1  0
 19 20  2  0
 20 21  1  0
 21 22  2  0
 21 23  1  0
 23 24  1  0
 24 25  1  0
 10  5  1  0
 15 11  2  0
 22 17  1  0
 25 20  1  0
  3 26  1  0
  4 27  1  0
  4 28  1  0
  6 29  1  0
  7 30  1  0
  8 31  1  0
  9 32  1  0
 12 33  1  0
 13 34  1  0
 15 35  1  0
 16 36  1  0
 18 37  1  0
 19 38  1  0
 22 39  1  0
 24 40  1  0
 24 41  1  0
M  END
>  <Energy>  (518) 
449.17238439804026

>  <compound_id>  (518) 
73514

>  <target_id>  (518) 
1

>  <reference_id>  (518) 
66

>  <inspiration_ids>  (518) 
[13, 66]

>  <energy_score>  (518) 
411.6886876178063

>  <distance_score>  (518) 
7.400431197102827

>  <path>  (518) 
/opt/xchem-fragalysis-2/maxwin/BulkDock/SCRATCH/511017/C73514-P66/C73514-P66.minimised.mol

>  <scratch_subdir>  (518) 
/opt/xchem-fragalysis-2/maxwin/BulkDock/SCRATCH/511017/C73514-P66

>  <fragmenstein_runtime>  (518) 
10.362969160079956

>  <fragmenstein_outcome>  (518) 
too moved

>  <fragmenstein_mode>  (518) 
expansion

>  <fragmenstein_error>  (518) 


$$$$
C73515-P13
     RDKit          3D

 45 48  0  0  0  0  0  0  0  0999 V2000
    4.0427   -1.4440   27.7581 O   0  0  0  0  0  0  0  0  0  0  0  0
    2.9858   -2.5633   27.6499 C   0  0  0  0  0  0  0  0  0  0  0  0
    3.5196   -3.3287   27.1121 N   0  0  0  0  0  0  0  0  0  0  0  0
    4.8940   -3.6291   26.3607 C   0  0  0  0  0  0  0  0  0  0  0  0
    5.2966   -2.3910   25.4897 C   0  0  0  0  0  0  0  0  0  0  0  0
    6.5281   -1.8668   26.0086 O   0  0  0  0  0  0  0  0  0  0  0  0
    5.2686   -2.3337   23.9593 C   0  0  0  0  0  0  0  0  0  0  0  0
    5.8890   -3.0508   22.7855 C   0  0  0  0  0  0  0  0  0  0  0  0
    5.8865   -2.6465   21.0367 C   0  0  0  0  0  0  0  0  0  0  0  0
    6.2520   -1.1982   20.7000 C   0  0  0  0  0  0  0  0  0  0  0  0
    7.1945   -0.1277   19.5441 C   0  0  0  0  0  0  0  0  0  0  0  0
    7.0492    0.0202   18.1322 C   0  0  0  0  0  0  0  0  0  0  0  0
    8.0370    0.6430   17.3555 C   0  0  0  0  0  0  0  0  0  0  0  0
    8.5979    1.8786   18.3335 S   0  0  0  0  0  0  0  0  0  0  0  0
    8.1981    0.8612   19.6886 C   0  0  0  0  0  0  0  0  0  0  0  0
    4.9807   -0.7639   21.8312 C   0  0  0  0  0  0  0  0  0  0  0  0
    4.6525   -1.2782   23.3733 C   0  0  0  0  0  0  0  0  0  0  0  0
    1.6152   -2.6192   28.0180 N   0  0  0  0  0  0  0  0  0  0  0  0
    0.7384   -1.6588   28.5110 C   0  0  0  0  0  0  0  0  0  0  0  0
   -0.6121   -2.0150   28.6151 C   0  0  0  0  0  0  0  0  0  0  0  0
   -1.6000   -1.0328   28.5081 C   0  0  0  0  0  0  0  0  0  0  0  0
   -1.2154    0.2756   28.3287 C   0  0  0  0  0  0  0  0  0  0  0  0
    0.1061    0.6331   28.3194 C   0  0  0  0  0  0  0  0  0  0  0  0
    1.1103   -0.3061   28.4460 C   0  0  0  0  0  0  0  0  0  0  0  0
    0.2756    1.9571   28.0513 O   0  0  0  0  0  0  0  0  0  0  0  0
   -1.0847    2.3605   27.7834 C   0  0  0  0  0  0  0  0  0  0  0  0
   -2.0419    1.3215   28.0675 O   0  0  0  0  0  0  0  0  0  0  0  0
    3.6112   -4.1832   26.6313 H   0  0  0  0  0  0  0  0  0  0  0  0
    5.6182   -3.7790   27.1721 H   0  0  0  0  0  0  0  0  0  0  0  0
    4.8853   -4.5372   25.7248 H   0  0  0  0  0  0  0  0  0  0  0  0
    4.5872   -1.6089   25.7453 H   0  0  0  0  0  0  0  0  0  0  0  0
    7.2277   -2.3962   25.5793 H   0  0  0  0  0  0  0  0  0  0  0  0
    6.3160   -4.0229   23.0987 H   0  0  0  0  0  0  0  0  0  0  0  0
    5.6072   -3.3312   20.2334 H   0  0  0  0  0  0  0  0  0  0  0  0
    6.2663   -0.5227   17.6004 H   0  0  0  0  0  0  0  0  0  0  0  0
    8.1154    0.6621   16.2759 H   0  0  0  0  0  0  0  0  0  0  0  0
    8.7665    1.2148   20.5350 H   0  0  0  0  0  0  0  0  0  0  0  0
    4.4535    0.1912   21.5612 H   0  0  0  0  0  0  0  0  0  0  0  0
    4.2890   -0.5317   24.0951 H   0  0  0  0  0  0  0  0  0  0  0  0
    1.2946   -3.5613   27.8606 H   0  0  0  0  0  0  0  0  0  0  0  0
   -0.9192   -3.0575   28.6116 H   0  0  0  0  0  0  0  0  0  0  0  0
   -2.6382   -1.3163   28.4390 H   0  0  0  0  0  0  0  0  0  0  0  0
    2.1431    0.0020   28.3198 H   0  0  0  0  0  0  0  0  0  0  0  0
   -1.3172    3.2431   28.3874 H   0  0  0  0  0  0  0  0  0  0  0  0
   -1.1670    2.6340   26.7244 H   0  0  0  0  0  0  0  0  0  0  0  0
  1  2  2  0
  2  3  1  0
  3  4  1  0
  4  5  1  0
  5  6  1  0
  5  7  1  0
  7  8  2  0
  8  9  1  0
  9 10  2  0
 10 11  1  0
 11 12  1  0
 12 13  2  0
 13 14  1  0
 14 15  1  0
 10 16  1  0
 16 17  2  0
  2 18  1  0
 18 19  1  0
 19 20  2  0
 20 21  1  0
 21 22  2  0
 22 23  1  0
 23 24  2  0
 23 25  1  0
 25 26  1  0
 26 27  1  0
 17  7  1  0
 24 19  1  0
 15 11  2  0
 27 22  1  0
  3 28  1  0
  4 29  1  0
  4 30  1  0
  5 31  1  0
  6 32  1  0
  8 33  1  0
  9 34  1  0
 12 35  1  0
 13 36  1  0
 15 37  1  0
 16 38  1  0
 17 39  1  0
 18 40  1  0
 20 41  1  0
 21 42  1  0
 24 43  1  0
 26 44  1  0
 26 45  1  0
M  END
>  <Energy>  (519) 
515.44771109122212

>  <compound_id>  (519) 
73515

>  <target_id>  (519) 
1

>  <reference_id>  (519) 
13

>  <inspiration_ids>  (519) 
[13, 66]

>  <energy_score>  (519) 
438.38197955504637

>  <distance_score>  (519) 
5.554882808856752

>  <path>  (519) 
/opt/xchem-fragalysis-2/maxwin/BulkDock/SCRATCH/511017/C73515-P13/C73515-P13.minimised.mol

>  <scratch_subdir>  (519) 
/opt/xchem-fragalysis-2/maxwin/BulkDock/SCRATCH/511017/C73515-P13

>  <fragmenstein_runtime>  (519) 
19.580497980117798

>  <fragmenstein_outcome>  (519) 
too moved

>  <fragmenstein_mode>  (519) 
expansion

>  <fragmenstein_error>  (519) 


$$$$
C73515-P66
     RDKit          3D

 45 48  0  0  0  0  0  0  0  0999 V2000
    4.7706    0.4759   26.5697 O   0  0  0  0  0  0  0  0  0  0  0  0
    4.1591   -0.5162   26.4407 C   0  0  0  0  0  0  0  0  0  0  0  0
    4.4346   -1.7043   25.6064 N   0  0  0  0  0  0  0  0  0  0  0  0
    5.4910   -1.9591   24.6240 C   0  0  0  0  0  0  0  0  0  0  0  0
    4.8768   -1.7887   23.2389 C   0  0  0  0  0  0  0  0  0  0  0  0
    3.5859   -2.5245   23.4195 O   0  0  0  0  0  0  0  0  0  0  0  0
    5.6747   -1.8585   21.6088 C   0  0  0  0  0  0  0  0  0  0  0  0
    5.4430   -2.8474   20.7106 C   0  0  0  0  0  0  0  0  0  0  0  0
    5.4344   -2.6820   19.2092 C   0  0  0  0  0  0  0  0  0  0  0  0
    6.0662   -1.2437   18.1911 C   0  0  0  0  0  0  0  0  0  0  0  0
    5.9472   -0.7712   16.4119 C   0  0  0  0  0  0  0  0  0  0  0  0
    7.0331   -1.1655   15.3581 C   0  0  0  0  0  0  0  0  0  0  0  0
    6.5241   -1.6668   14.1698 C   0  0  0  0  0  0  0  0  0  0  0  0
    4.8232   -1.7436   14.1371 S   0  0  0  0  0  0  0  0  0  0  0  0
    4.6999   -1.1298   15.7460 C   0  0  0  0  0  0  0  0  0  0  0  0
    6.9896   -0.4803   19.1336 C   0  0  0  0  0  0  0  0  0  0  0  0
    6.6532   -0.8116   20.7009 C   0  0  0  0  0  0  0  0  0  0  0  0
    2.8276   -0.9041   26.9923 N   0  0  0  0  0  0  0  0  0  0  0  0
    1.9039   -0.1726   27.7290 C   0  0  0  0  0  0  0  0  0  0  0  0
    2.2204    1.1286   28.1621 C   0  0  0  0  0  0  0  0  0  0  0  0
    1.2164    2.0074   28.5605 C   0  0  0  0  0  0  0  0  0  0  0  0
   -0.0768    1.5518   28.4894 C   0  0  0  0  0  0  0  0  0  0  0  0
   -0.3815    0.2578   28.1367 C   0  0  0  0  0  0  0  0  0  0  0  0
    0.5945   -0.6511   27.8026 C   0  0  0  0  0  0  0  0  0  0  0  0
   -1.7219    0.0408   28.0707 O   0  0  0  0  0  0  0  0  0  0  0  0
   -2.2144    1.3587   28.3833 C   0  0  0  0  0  0  0  0  0  0  0  0
   -1.1811    2.3078   28.6928 O   0  0  0  0  0  0  0  0  0  0  0  0
    3.7499   -2.4071   25.7958 H   0  0  0  0  0  0  0  0  0  0  0  0
    5.9746   -2.8970   24.4444 H   0  0  0  0  0  0  0  0  0  0  0  0
    6.3285   -1.4660   25.1128 H   0  0  0  0  0  0  0  0  0  0  0  0
    4.4807   -0.8518   23.4367 H   0  0  0  0  0  0  0  0  0  0  0  0
    3.0281   -1.9277   23.9548 H   0  0  0  0  0  0  0  0  0  0  0  0
    4.6618   -3.5361   20.8862 H   0  0  0  0  0  0  0  0  0  0  0  0
    5.2694   -3.8191   19.1143 H   0  0  0  0  0  0  0  0  0  0  0  0
    8.0827   -1.3210   15.5277 H   0  0  0  0  0  0  0  0  0  0  0  0
    7.0981   -1.9720   13.3135 H   0  0  0  0  0  0  0  0  0  0  0  0
    3.7408   -1.3026   16.2184 H   0  0  0  0  0  0  0  0  0  0  0  0
    7.5142    0.4282   18.9007 H   0  0  0  0  0  0  0  0  0  0  0  0
    6.1759    0.1148   21.0545 H   0  0  0  0  0  0  0  0  0  0  0  0
    2.5600   -1.7955   26.6172 H   0  0  0  0  0  0  0  0  0  0  0  0
    3.2423    1.4977   28.1163 H   0  0  0  0  0  0  0  0  0  0  0  0
    1.4414    3.0304   28.8390 H   0  0  0  0  0  0  0  0  0  0  0  0
    0.3271   -1.6481   27.4775 H   0  0  0  0  0  0  0  0  0  0  0  0
   -2.7920    1.7344   27.5312 H   0  0  0  0  0  0  0  0  0  0  0  0
   -2.8627    1.2682   29.2589 H   0  0  0  0  0  0  0  0  0  0  0  0
  1  2  2  0
  2  3  1  0
  3  4  1  0
  4  5  1  0
  5  6  1  0
  5  7  1  0
  7  8  2  0
  8  9  1  0
  9 10  2  0
 10 11  1  0
 11 12  1  0
 12 13  2  0
 13 14  1  0
 14 15  1  0
 10 16  1  0
 16 17  2  0
  2 18  1  0
 18 19  1  0
 19 20  2  0
 20 21  1  0
 21 22  2  0
 22 23  1  0
 23 24  2  0
 23 25  1  0
 25 26  1  0
 26 27  1  0
 17  7  1  0
 24 19  1  0
 15 11  2  0
 27 22  1  0
  3 28  1  0
  4 29  1  0
  4 30  1  0
  5 31  1  0
  6 32  1  0
  8 33  1  0
  9 34  1  0
 12 35  1  0
 13 36  1  0
 15 37  1  0
 16 38  1  0
 17 39  1  0
 18 40  1  0
 20 41  1  0
 21 42  1  0
 24 43  1  0
 26 44  1  0
 26 45  1  0
M  END
>  <Energy>  (520) 
365.02976468698694

>  <compound_id>  (520) 
73515

>  <target_id>  (520) 
1

>  <reference_id>  (520) 
66

>  <inspiration_ids>  (520) 
[13, 66]

>  <energy_score>  (520) 
287.9640331508257

>  <distance_score>  (520) 
6.272034097960021

>  <path>  (520) 
/opt/xchem-fragalysis-2/maxwin/BulkDock/SCRATCH/511017/C73515-P66/C73515-P66.minimised.mol

>  <scratch_subdir>  (520) 
/opt/xchem-fragalysis-2/maxwin/BulkDock/SCRATCH/511017/C73515-P66

>  <fragmenstein_runtime>  (520) 
15.564393758773804

>  <fragmenstein_outcome>  (520) 
too moved

>  <fragmenstein_mode>  (520) 
expansion

>  <fragmenstein_error>  (520) 


$$$$
C73516-P13
     RDKit          3D

 50 53  0  0  0  0  0  0  0  0999 V2000
    9.4718   -3.7239   27.0934 O   0  0  0  0  0  0  0  0  0  0  0  0
    9.2204   -2.6110   26.7252 C   0  0  0  0  0  0  0  0  0  0  0  0
    8.0468   -1.7915   26.9281 N   0  0  0  0  0  0  0  0  0  0  0  0
    6.8482   -2.0233   27.7192 C   0  0  0  0  0  0  0  0  0  0  0  0
    5.5842   -1.2053   27.4520 C   0  0  0  0  0  0  0  0  0  0  0  0
    5.5891    0.0658   26.8391 C   0  0  0  0  0  0  0  0  0  0  0  0
    4.4117    0.8322   26.7172 C   0  0  0  0  0  0  0  0  0  0  0  0
    3.2372    0.3258   27.2303 C   0  0  0  0  0  0  0  0  0  0  0  0
    3.2022   -0.9079   27.8258 C   0  0  0  0  0  0  0  0  0  0  0  0
    4.3444   -1.6886   27.9470 C   0  0  0  0  0  0  0  0  0  0  0  0
    1.9573   -1.2263   28.2780 O   0  0  0  0  0  0  0  0  0  0  0  0
    1.2212   -0.0331   27.9256 C   0  0  0  0  0  0  0  0  0  0  0  0
    2.0266    0.9473   27.2367 O   0  0  0  0  0  0  0  0  0  0  0  0
   10.3174   -1.8980   25.8401 C   0  0  0  0  0  0  0  0  0  0  0  0
   10.2515   -0.7066   25.7385 O   0  0  0  0  0  0  0  0  0  0  0  0
   11.2331   -2.8482   25.2459 N   0  0  0  0  0  0  0  0  0  0  0  0
   12.4386   -2.6420   24.4018 C   0  0  0  0  0  0  0  0  0  0  0  0
   12.4255   -3.4831   23.0771 C   0  0  0  0  0  0  0  0  0  0  0  0
   12.6820   -4.8545   23.4251 O   0  0  0  0  0  0  0  0  0  0  0  0
   13.3416   -3.1836   21.8968 C   0  0  0  0  0  0  0  0  0  0  0  0
   13.3616   -4.1045   20.8264 C   0  0  0  0  0  0  0  0  0  0  0  0
   14.0710   -3.8612   19.6475 C   0  0  0  0  0  0  0  0  0  0  0  0
   14.7832   -2.6732   19.4883 C   0  0  0  0  0  0  0  0  0  0  0  0
   15.4736   -2.3983   18.2287 C   0  0  0  0  0  0  0  0  0  0  0  0
   15.0596   -2.8001   16.9137 C   0  0  0  0  0  0  0  0  0  0  0  0
   15.9349   -2.3943   15.9307 C   0  0  0  0  0  0  0  0  0  0  0  0
   17.2611   -1.5320   16.5741 S   0  0  0  0  0  0  0  0  0  0  0  0
   16.6711   -1.7096   18.1721 C   0  0  0  0  0  0  0  0  0  0  0  0
   14.7910   -1.7570   20.5518 C   0  0  0  0  0  0  0  0  0  0  0  0
   14.0848   -2.0105   21.7438 C   0  0  0  0  0  0  0  0  0  0  0  0
    8.2173   -0.8685   26.5419 H   0  0  0  0  0  0  0  0  0  0  0  0
    6.6158   -3.0897   27.6141 H   0  0  0  0  0  0  0  0  0  0  0  0
    7.1397   -1.8591   28.7633 H   0  0  0  0  0  0  0  0  0  0  0  0
    6.5135    0.4907   26.4561 H   0  0  0  0  0  0  0  0  0  0  0  0
    4.4321    1.8068   26.2409 H   0  0  0  0  0  0  0  0  0  0  0  0
    4.2828   -2.6521   28.4447 H   0  0  0  0  0  0  0  0  0  0  0  0
    0.8360    0.4201   28.8466 H   0  0  0  0  0  0  0  0  0  0  0  0
    0.3701   -0.3097   27.2959 H   0  0  0  0  0  0  0  0  0  0  0  0
   11.0413   -3.7741   25.6231 H   0  0  0  0  0  0  0  0  0  0  0  0
   12.5299   -1.5697   24.2227 H   0  0  0  0  0  0  0  0  0  0  0  0
   13.2891   -2.9478   25.0213 H   0  0  0  0  0  0  0  0  0  0  0  0
   11.4076   -3.4579   22.6787 H   0  0  0  0  0  0  0  0  0  0  0  0
   12.0088   -5.1002   24.0797 H   0  0  0  0  0  0  0  0  0  0  0  0
   12.7909   -5.0297   20.9001 H   0  0  0  0  0  0  0  0  0  0  0  0
   14.0452   -4.6172   18.8650 H   0  0  0  0  0  0  0  0  0  0  0  0
   14.1578   -3.3614   16.6979 H   0  0  0  0  0  0  0  0  0  0  0  0
   15.8591   -2.5667   14.8658 H   0  0  0  0  0  0  0  0  0  0  0  0
   17.2488   -1.3023   18.9905 H   0  0  0  0  0  0  0  0  0  0  0  0
   15.3258   -0.8139   20.4655 H   0  0  0  0  0  0  0  0  0  0  0  0
   14.0934   -1.2541   22.5249 H   0  0  0  0  0  0  0  0  0  0  0  0
  1  2  2  0
  2  3  1  0
  3  4  1  0
  4  5  1  0
  5  6  2  0
  6  7  1  0
  7  8  2  0
  8  9  1  0
  9 10  2  0
  9 11  1  0
 11 12  1  0
 12 13  1  0
  2 14  1  0
 14 15  2  0
 14 16  1  0
 16 17  1  0
 17 18  1  0
 18 19  1  0
 18 20  1  0
 20 21  2  0
 21 22  1  0
 22 23  2  0
 23 24  1  0
 24 25  1  0
 25 26  2  0
 26 27  1  0
 27 28  1  0
 23 29  1  0
 29 30  2  0
 10  5  1  0
 30 20  1  0
 13  8  1  0
 28 24  2  0
  3 31  1  0
  4 32  1  0
  4 33  1  0
  6 34  1  0
  7 35  1  0
 10 36  1  0
 12 37  1  0
 12 38  1  0
 16 39  1  0
 17 40  1  0
 17 41  1  0
 18 42  1  0
 19 43  1  0
 21 44  1  0
 22 45  1  0
 25 46  1  0
 26 47  1  0
 28 48  1  0
 29 49  1  0
 30 50  1  0
M  END
>  <Energy>  (521) 
105.28176073896191

>  <compound_id>  (521) 
73516

>  <target_id>  (521) 
1

>  <reference_id>  (521) 
13

>  <inspiration_ids>  (521) 
[13, 66]

>  <energy_score>  (521) 
-42.88964619970574

>  <distance_score>  (521) 
7.409505092912588

>  <path>  (521) 
/opt/xchem-fragalysis-2/maxwin/BulkDock/SCRATCH/511017/C73516-P13/C73516-P13.minimised.mol

>  <scratch_subdir>  (521) 
/opt/xchem-fragalysis-2/maxwin/BulkDock/SCRATCH/511017/C73516-P13

>  <fragmenstein_runtime>  (521) 
30.49742364883423

>  <fragmenstein_outcome>  (521) 
too moved

>  <fragmenstein_mode>  (521) 
expansion

>  <fragmenstein_error>  (521) 


$$$$
C73516-P66
     RDKit          3D

 50 53  0  0  0  0  0  0  0  0999 V2000
    9.3718   -0.3317   26.7555 O   0  0  0  0  0  0  0  0  0  0  0  0
    8.7272    0.6272   26.4426 C   0  0  0  0  0  0  0  0  0  0  0  0
    7.3510    0.9555   26.6919 N   0  0  0  0  0  0  0  0  0  0  0  0
    6.2850    0.1866   27.3177 C   0  0  0  0  0  0  0  0  0  0  0  0
    4.9136    0.8395   27.4131 C   0  0  0  0  0  0  0  0  0  0  0  0
    4.7609    2.2072   27.7337 C   0  0  0  0  0  0  0  0  0  0  0  0
    3.4908    2.7839   27.9025 C   0  0  0  0  0  0  0  0  0  0  0  0
    2.3839    1.9724   27.7846 C   0  0  0  0  0  0  0  0  0  0  0  0
    2.5068    0.6350   27.5048 C   0  0  0  0  0  0  0  0  0  0  0  0
    3.7461    0.0457   27.3026 C   0  0  0  0  0  0  0  0  0  0  0  0
    1.2992    0.0063   27.4827 O   0  0  0  0  0  0  0  0  0  0  0  0
    0.4069    1.1039   27.7578 C   0  0  0  0  0  0  0  0  0  0  0  0
    1.0896    2.3602   27.9456 O   0  0  0  0  0  0  0  0  0  0  0  0
    9.4803    1.7162   25.5784 C   0  0  0  0  0  0  0  0  0  0  0  0
    8.9778    2.7927   25.4489 O   0  0  0  0  0  0  0  0  0  0  0  0
   10.6894    1.1699   25.0207 N   0  0  0  0  0  0  0  0  0  0  0  0
   11.7411    1.7917   24.1926 C   0  0  0  0  0  0  0  0  0  0  0  0
   11.9416    0.9922   22.8769 C   0  0  0  0  0  0  0  0  0  0  0  0
   10.7913    1.1620   22.0423 O   0  0  0  0  0  0  0  0  0  0  0  0
   13.1483    1.2878   22.0104 C   0  0  0  0  0  0  0  0  0  0  0  0
   14.2267    0.3892   21.9825 C   0  0  0  0  0  0  0  0  0  0  0  0
   15.2679    0.5418   21.0602 C   0  0  0  0  0  0  0  0  0  0  0  0
   15.2490    1.5900   20.1332 C   0  0  0  0  0  0  0  0  0  0  0  0
   16.3131    1.7092   19.1413 C   0  0  0  0  0  0  0  0  0  0  0  0
   16.9120    0.6480   18.3864 C   0  0  0  0  0  0  0  0  0  0  0  0
   17.8977    1.0945   17.5339 C   0  0  0  0  0  0  0  0  0  0  0  0
   18.1180    2.7855   17.6402 S   0  0  0  0  0  0  0  0  0  0  0  0
   16.8939    2.9242   18.8292 C   0  0  0  0  0  0  0  0  0  0  0  0
   14.1897    2.5051   20.1705 C   0  0  0  0  0  0  0  0  0  0  0  0
   13.1597    2.3640   21.1088 C   0  0  0  0  0  0  0  0  0  0  0  0
    7.1669    1.8932   26.3472 H   0  0  0  0  0  0  0  0  0  0  0  0
    6.6253   -0.0732   28.3267 H   0  0  0  0  0  0  0  0  0  0  0  0
    6.2173   -0.7515   26.7549 H   0  0  0  0  0  0  0  0  0  0  0  0
    5.6380    2.8366   27.8715 H   0  0  0  0  0  0  0  0  0  0  0  0
    3.3829    3.8359   28.1429 H   0  0  0  0  0  0  0  0  0  0  0  0
    3.8074   -1.0157   27.0728 H   0  0  0  0  0  0  0  0  0  0  0  0
   -0.1606    0.8745   28.6672 H   0  0  0  0  0  0  0  0  0  0  0  0
   -0.2966    1.2080   26.9243 H   0  0  0  0  0  0  0  0  0  0  0  0
   10.8500    0.2412   25.4187 H   0  0  0  0  0  0  0  0  0  0  0  0
   11.4422    2.8248   23.9879 H   0  0  0  0  0  0  0  0  0  0  0  0
   12.6576    1.7923   24.7904 H   0  0  0  0  0  0  0  0  0  0  0  0
   11.9647   -0.0621   23.1616 H   0  0  0  0  0  0  0  0  0  0  0  0
   10.0572    1.4144   22.6262 H   0  0  0  0  0  0  0  0  0  0  0  0
   14.2388   -0.4722   22.6492 H   0  0  0  0  0  0  0  0  0  0  0  0
   16.0800   -0.1814   21.0639 H   0  0  0  0  0  0  0  0  0  0  0  0
   16.6258   -0.3944   18.4583 H   0  0  0  0  0  0  0  0  0  0  0  0
   18.5005    0.5088   16.8537 H   0  0  0  0  0  0  0  0  0  0  0  0
   16.6707    3.8979   19.2441 H   0  0  0  0  0  0  0  0  0  0  0  0
   14.1355    3.3233   19.4563 H   0  0  0  0  0  0  0  0  0  0  0  0
   12.3232    3.0608   21.0847 H   0  0  0  0  0  0  0  0  0  0  0  0
  1  2  2  0
  2  3  1  0
  3  4  1  0
  4  5  1  0
  5  6  2  0
  6  7  1  0
  7  8  2  0
  8  9  1  0
  9 10  2  0
  9 11  1  0
 11 12  1  0
 12 13  1  0
  2 14  1  0
 14 15  2  0
 14 16  1  0
 16 17  1  0
 17 18  1  0
 18 19  1  0
 18 20  1  0
 20 21  2  0
 21 22  1  0
 22 23  2  0
 23 24  1  0
 24 25  1  0
 25 26  2  0
 26 27  1  0
 27 28  1  0
 23 29  1  0
 29 30  2  0
 10  5  1  0
 30 20  1  0
 13  8  1  0
 28 24  2  0
  3 31  1  0
  4 32  1  0
  4 33  1  0
  6 34  1  0
  7 35  1  0
 10 36  1  0
 12 37  1  0
 12 38  1  0
 16 39  1  0
 17 40  1  0
 17 41  1  0
 18 42  1  0
 19 43  1  0
 21 44  1  0
 22 45  1  0
 25 46  1  0
 26 47  1  0
 28 48  1  0
 29 49  1  0
 30 50  1  0
M  END
>  <Energy>  (522) 
100.1737221222924

>  <compound_id>  (522) 
73516

>  <target_id>  (522) 
1

>  <reference_id>  (522) 
66

>  <inspiration_ids>  (522) 
[13, 66]

>  <energy_score>  (522) 
-47.99768481637659

>  <distance_score>  (522) 
7.379729358259519

>  <path>  (522) 
/opt/xchem-fragalysis-2/maxwin/BulkDock/SCRATCH/511017/C73516-P66/C73516-P66.minimised.mol

>  <scratch_subdir>  (522) 
/opt/xchem-fragalysis-2/maxwin/BulkDock/SCRATCH/511017/C73516-P66

>  <fragmenstein_runtime>  (522) 
19.727811813354492

>  <fragmenstein_outcome>  (522) 
too moved

>  <fragmenstein_mode>  (522) 
expansion

>  <fragmenstein_error>  (522) 


$$$$
C73519-P13
     RDKit          3D

 44 47  0  0  0  0  0  0  0  0999 V2000
    8.3783    1.8125   20.6094 O   0  0  0  0  0  0  0  0  0  0  0  0
    7.1933    1.5406   20.2710 C   0  0  0  0  0  0  0  0  0  0  0  0
    7.1626    1.1470   18.8208 C   0  0  0  0  0  0  0  0  0  0  0  0
    8.3284    1.1480   17.7497 C   0  0  0  0  0  0  0  0  0  0  0  0
    8.3434    0.2965   16.5658 C   0  0  0  0  0  0  0  0  0  0  0  0
    9.2750    0.6294   15.6124 C   0  0  0  0  0  0  0  0  0  0  0  0
    9.9636    2.1343   15.9666 S   0  0  0  0  0  0  0  0  0  0  0  0
    9.1754    2.2110   17.4980 C   0  0  0  0  0  0  0  0  0  0  0  0
    5.4532    1.6390   21.2772 N   0  0  0  0  0  0  0  0  0  0  0  0
    4.9775    2.0502   23.1251 C   0  0  0  0  0  0  0  0  0  0  0  0
    4.4755    1.0406   24.4852 C   0  0  0  0  0  0  0  0  0  0  0  0
    4.5985    1.4266   25.8924 N   0  0  0  0  0  0  0  0  0  0  0  0
    5.3328    2.4619   26.3854 C   0  0  0  0  0  0  0  0  0  0  0  0
    5.9912    3.2771   25.7609 O   0  0  0  0  0  0  0  0  0  0  0  0
    5.1407    2.5333   28.1459 S   0  0  0  0  0  0  0  0  0  0  0  0
    3.7544    1.5022   28.0869 C   0  0  0  0  0  0  0  0  0  0  0  0
    2.7086    1.6027   28.9234 C   0  0  0  0  0  0  0  0  0  0  0  0
    1.3418    1.2370   28.5248 C   0  0  0  0  0  0  0  0  0  0  0  0
    0.8397   -0.0746   28.5725 C   0  0  0  0  0  0  0  0  0  0  0  0
   -0.4422   -0.3586   28.0796 C   0  0  0  0  0  0  0  0  0  0  0  0
   -1.1824    0.6789   27.5503 C   0  0  0  0  0  0  0  0  0  0  0  0
   -0.7017    1.9603   27.5177 C   0  0  0  0  0  0  0  0  0  0  0  0
    0.5457    2.2723   28.0041 C   0  0  0  0  0  0  0  0  0  0  0  0
   -1.5630    2.8333   26.9347 O   0  0  0  0  0  0  0  0  0  0  0  0
   -2.6549    1.9550   26.6014 C   0  0  0  0  0  0  0  0  0  0  0  0
   -2.4120    0.5856   26.9836 O   0  0  0  0  0  0  0  0  0  0  0  0
    3.7870    0.7591   26.8067 C   0  0  0  0  0  0  0  0  0  0  0  0
    3.1866   -0.2912   26.6278 O   0  0  0  0  0  0  0  0  0  0  0  0
    6.6519    0.2166   18.6958 H   0  0  0  0  0  0  0  0  0  0  0  0
    6.8428    2.1518   18.5119 H   0  0  0  0  0  0  0  0  0  0  0  0
    7.6057   -0.4590   16.3380 H   0  0  0  0  0  0  0  0  0  0  0  0
    9.4524    0.1442   14.6607 H   0  0  0  0  0  0  0  0  0  0  0  0
    9.3037    3.0961   18.1082 H   0  0  0  0  0  0  0  0  0  0  0  0
    4.6556    1.2481   20.7321 H   0  0  0  0  0  0  0  0  0  0  0  0
    4.5399    3.0507   23.3516 H   0  0  0  0  0  0  0  0  0  0  0  0
    3.9369    1.8617   22.7918 H   0  0  0  0  0  0  0  0  0  0  0  0
    4.8261    0.0129   24.3712 H   0  0  0  0  0  0  0  0  0  0  0  0
    3.3829    1.0705   24.4571 H   0  0  0  0  0  0  0  0  0  0  0  0
    2.7664    2.2434   29.8006 H   0  0  0  0  0  0  0  0  0  0  0  0
    1.4575   -0.8877   28.9461 H   0  0  0  0  0  0  0  0  0  0  0  0
   -0.8309   -1.3722   28.0685 H   0  0  0  0  0  0  0  0  0  0  0  0
    0.9004    3.2970   27.9497 H   0  0  0  0  0  0  0  0  0  0  0  0
   -2.8059    1.9921   25.5175 H   0  0  0  0  0  0  0  0  0  0  0  0
   -3.5667    2.3091   27.0891 H   0  0  0  0  0  0  0  0  0  0  0  0
  1  2  2  0
  2  3  1  0
  3  4  1  0
  4  5  1  0
  5  6  2  0
  6  7  1  0
  7  8  1  0
  2  9  1  0
  9 10  1  0
 10 11  1  0
 11 12  1  0
 12 13  1  0
 13 14  2  0
 13 15  1  0
 15 16  1  0
 16 17  2  3
 17 18  1  0
 18 19  2  0
 19 20  1  0
 20 21  2  0
 21 22  1  0
 22 23  2  0
 22 24  1  0
 24 25  1  0
 25 26  1  0
 16 27  1  0
 27 28  2  0
  8  4  2  0
 27 12  1  0
 23 18  1  0
 26 21  1  0
  3 29  1  0
  3 30  1  0
  5 31  1  0
  6 32  1  0
  8 33  1  0
  9 34  1  0
 10 35  1  0
 10 36  1  0
 11 37  1  0
 11 38  1  0
 17 39  1  0
 19 40  1  0
 20 41  1  0
 23 42  1  0
 25 43  1  0
 25 44  1  0
M  END
>  <Energy>  (523) 
300.00647918522549

>  <compound_id>  (523) 
73519

>  <target_id>  (523) 
1

>  <reference_id>  (523) 
13

>  <inspiration_ids>  (523) 
[13, 66]

>  <energy_score>  (523) 
244.53862386823505

>  <distance_score>  (523) 
5.257730056907757

>  <path>  (523) 
/opt/xchem-fragalysis-2/maxwin/BulkDock/SCRATCH/511017/C73519-P13/C73519-P13.minimised.mol

>  <scratch_subdir>  (523) 
/opt/xchem-fragalysis-2/maxwin/BulkDock/SCRATCH/511017/C73519-P13

>  <fragmenstein_runtime>  (523) 
13.088105201721191

>  <fragmenstein_outcome>  (523) 
too moved

>  <fragmenstein_mode>  (523) 
expansion

>  <fragmenstein_error>  (523) 


$$$$
C73519-P66
     RDKit          3D

 44 47  0  0  0  0  0  0  0  0999 V2000
    7.8507    0.9385   17.0249 O   0  0  0  0  0  0  0  0  0  0  0  0
    7.2889   -0.1309   17.1766 C   0  0  0  0  0  0  0  0  0  0  0  0
    7.2905   -1.0822   15.5563 C   0  0  0  0  0  0  0  0  0  0  0  0
    8.8520   -1.0766   14.7724 C   0  0  0  0  0  0  0  0  0  0  0  0
    9.8784   -2.1494   14.9136 C   0  0  0  0  0  0  0  0  0  0  0  0
   11.1900   -1.7962   14.6440 C   0  0  0  0  0  0  0  0  0  0  0  0
   11.3077   -0.1961   14.0738 S   0  0  0  0  0  0  0  0  0  0  0  0
    9.5626   -0.0075   14.1633 C   0  0  0  0  0  0  0  0  0  0  0  0
    6.7015   -0.8360   18.5465 N   0  0  0  0  0  0  0  0  0  0  0  0
    6.8014   -0.3589   20.2444 C   0  0  0  0  0  0  0  0  0  0  0  0
    5.7157   -1.3692   21.7207 C   0  0  0  0  0  0  0  0  0  0  0  0
    5.2907   -1.6895   23.6101 N   0  0  0  0  0  0  0  0  0  0  0  0
    4.1948   -1.1468   24.2255 C   0  0  0  0  0  0  0  0  0  0  0  0
    4.0784    0.0069   24.6723 O   0  0  0  0  0  0  0  0  0  0  0  0
    3.3840   -2.3040   25.1912 S   0  0  0  0  0  0  0  0  0  0  0  0
    4.6227   -1.7752   26.1816 C   0  0  0  0  0  0  0  0  0  0  0  0
    4.5185   -1.2120   27.3999 C   0  0  0  0  0  0  0  0  0  0  0  0
    3.2083   -0.7092   27.9085 C   0  0  0  0  0  0  0  0  0  0  0  0
    3.0702    0.6980   28.0072 C   0  0  0  0  0  0  0  0  0  0  0  0
    1.8281    1.3029   28.2397 C   0  0  0  0  0  0  0  0  0  0  0  0
    0.7326    0.4815   28.3618 C   0  0  0  0  0  0  0  0  0  0  0  0
    0.8527   -0.8879   28.3124 C   0  0  0  0  0  0  0  0  0  0  0  0
    2.0740   -1.5137   28.1131 C   0  0  0  0  0  0  0  0  0  0  0  0
   -0.3544   -1.5084   28.4335 O   0  0  0  0  0  0  0  0  0  0  0  0
   -1.2436   -0.3741   28.4717 C   0  0  0  0  0  0  0  0  0  0  0  0
   -0.5560    0.8924   28.5092 O   0  0  0  0  0  0  0  0  0  0  0  0
    5.8367   -1.7653   25.0594 C   0  0  0  0  0  0  0  0  0  0  0  0
    6.9466   -1.5820   25.5770 O   0  0  0  0  0  0  0  0  0  0  0  0
    7.4100   -2.1513   15.6354 H   0  0  0  0  0  0  0  0  0  0  0  0
    6.4292   -0.9821   14.9168 H   0  0  0  0  0  0  0  0  0  0  0  0
    9.6694   -3.1880   15.0601 H   0  0  0  0  0  0  0  0  0  0  0  0
   12.0640   -2.4297   14.6801 H   0  0  0  0  0  0  0  0  0  0  0  0
    9.2716    0.9788   13.9224 H   0  0  0  0  0  0  0  0  0  0  0  0
    6.2272   -1.6605   18.3187 H   0  0  0  0  0  0  0  0  0  0  0  0
    7.1762    0.6734   20.1954 H   0  0  0  0  0  0  0  0  0  0  0  0
    7.7216   -0.8918   20.3415 H   0  0  0  0  0  0  0  0  0  0  0  0
    4.8092   -0.8113   21.6629 H   0  0  0  0  0  0  0  0  0  0  0  0
    5.6539   -2.3974   21.3330 H   0  0  0  0  0  0  0  0  0  0  0  0
    5.4111   -0.7932   27.8547 H   0  0  0  0  0  0  0  0  0  0  0  0
    3.9324    1.3378   27.8233 H   0  0  0  0  0  0  0  0  0  0  0  0
    1.7279    2.3816   28.2691 H   0  0  0  0  0  0  0  0  0  0  0  0
    2.1230   -2.5927   28.0252 H   0  0  0  0  0  0  0  0  0  0  0  0
   -1.8720   -0.4549   29.3658 H   0  0  0  0  0  0  0  0  0  0  0  0
   -1.8910   -0.3993   27.5871 H   0  0  0  0  0  0  0  0  0  0  0  0
  1  2  2  0
  2  3  1  0
  3  4  1  0
  4  5  1  0
  5  6  2  0
  6  7  1  0
  7  8  1  0
  2  9  1  0
  9 10  1  0
 10 11  1  0
 11 12  1  0
 12 13  1  0
 13 14  2  0
 13 15  1  0
 15 16  1  0
 16 17  2  3
 17 18  1  0
 18 19  2  0
 19 20  1  0
 20 21  2  0
 21 22  1  0
 22 23  2  0
 22 24  1  0
 24 25  1  0
 25 26  1  0
 16 27  1  0
 27 28  2  0
  8  4  2  0
 27 12  1  0
 23 18  1  0
 26 21  1  0
  3 29  1  0
  3 30  1  0
  5 31  1  0
  6 32  1  0
  8 33  1  0
  9 34  1  0
 10 35  1  0
 10 36  1  0
 11 37  1  0
 11 38  1  0
 17 39  1  0
 19 40  1  0
 20 41  1  0
 23 42  1  0
 25 43  1  0
 25 44  1  0
M  END
>  <Energy>  (524) 
445.00735668736206

>  <compound_id>  (524) 
73519

>  <target_id>  (524) 
1

>  <reference_id>  (524) 
66

>  <inspiration_ids>  (524) 
[13, 66]

>  <energy_score>  (524) 
389.53950137037356

>  <distance_score>  (524) 
5.729899511521676

>  <path>  (524) 
/opt/xchem-fragalysis-2/maxwin/BulkDock/SCRATCH/511017/C73519-P66/C73519-P66.minimised.mol

>  <scratch_subdir>  (524) 
/opt/xchem-fragalysis-2/maxwin/BulkDock/SCRATCH/511017/C73519-P66

>  <fragmenstein_runtime>  (524) 
17.211313009262085

>  <fragmenstein_outcome>  (524) 
too moved

>  <fragmenstein_mode>  (524) 
expansion

>  <fragmenstein_error>  (524) 


$$$$
C73521-P13
     RDKit          3D

 29 31  0  0  0  0  0  0  0  0999 V2000
    2.0174   -2.0639   28.6626 C   0  0  0  0  0  0  0  0  0  0  0  0
    1.5709   -0.7223   28.1548 C   0  0  0  0  0  0  0  0  0  0  0  0
    0.1743   -0.4778   28.2276 C   0  0  0  0  0  0  0  0  0  0  0  0
   -0.3160    0.7517   27.8560 C   0  0  0  0  0  0  0  0  0  0  0  0
    0.5234    1.7423   27.4290 C   0  0  0  0  0  0  0  0  0  0  0  0
    1.8898    1.5463   27.3304 C   0  0  0  0  0  0  0  0  0  0  0  0
    2.4369    0.2826   27.6436 C   0  0  0  0  0  0  0  0  0  0  0  0
    3.8257    0.1675   27.3921 N   0  0  0  0  0  0  0  0  0  0  0  0
    4.6616   -0.9953   27.1952 C   0  0  0  0  0  0  0  0  0  0  0  0
    4.4066   -2.1630   27.2726 O   0  0  0  0  0  0  0  0  0  0  0  0
    6.0955   -0.6585   26.8852 C   0  0  0  0  0  0  0  0  0  0  0  0
    7.1120   -1.6770   26.7195 C   0  0  0  0  0  0  0  0  0  0  0  0
    8.3775   -1.1908   26.4780 C   0  0  0  0  0  0  0  0  0  0  0  0
    8.3969    0.5061   26.4725 S   0  0  0  0  0  0  0  0  0  0  0  0
    6.6925    0.5810   26.7088 C   0  0  0  0  0  0  0  0  0  0  0  0
   -0.1483    2.8751   27.0849 O   0  0  0  0  0  0  0  0  0  0  0  0
   -1.5169    2.4695   27.3288 C   0  0  0  0  0  0  0  0  0  0  0  0
   -1.6198    1.1326   27.8615 O   0  0  0  0  0  0  0  0  0  0  0  0
    2.9402   -1.9728   29.2428 H   0  0  0  0  0  0  0  0  0  0  0  0
    1.2785   -2.4906   29.3513 H   0  0  0  0  0  0  0  0  0  0  0  0
    2.1385   -2.7705   27.8386 H   0  0  0  0  0  0  0  0  0  0  0  0
   -0.5164   -1.2475   28.5619 H   0  0  0  0  0  0  0  0  0  0  0  0
    2.5065    2.3554   26.9532 H   0  0  0  0  0  0  0  0  0  0  0  0
    4.3528    0.9935   27.1631 H   0  0  0  0  0  0  0  0  0  0  0  0
    6.9007   -2.7397   26.7819 H   0  0  0  0  0  0  0  0  0  0  0  0
    9.2829   -1.7619   26.3232 H   0  0  0  0  0  0  0  0  0  0  0  0
    6.2500    1.5650   26.7422 H   0  0  0  0  0  0  0  0  0  0  0  0
   -1.9688    3.1725   28.0365 H   0  0  0  0  0  0  0  0  0  0  0  0
   -2.0697    2.5154   26.3832 H   0  0  0  0  0  0  0  0  0  0  0  0
  1  2  1  0
  2  3  2  0
  3  4  1  0
  4  5  2  0
  5  6  1  0
  6  7  2  0
  7  8  1  0
  8  9  1  0
  9 10  2  0
  9 11  1  0
 11 12  1  0
 12 13  2  0
 13 14  1  0
 14 15  1  0
  5 16  1  0
 16 17  1  0
 17 18  1  0
  7  2  1  0
 15 11  2  0
 18  4  1  0
  1 19  1  0
  1 20  1  0
  1 21  1  0
  3 22  1  0
  6 23  1  0
  8 24  1  0
 12 25  1  0
 13 26  1  0
 15 27  1  0
 17 28  1  0
 17 29  1  0
M  END
>  <Energy>  (525) 
28.045809769569082

>  <compound_id>  (525) 
73521

>  <target_id>  (525) 
1

>  <reference_id>  (525) 
13

>  <inspiration_ids>  (525) 
[13, 66]

>  <energy_score>  (525) 
-42.67871750827459

>  <distance_score>  (525) 
7.968667973381428

>  <path>  (525) 
/opt/xchem-fragalysis-2/maxwin/BulkDock/SCRATCH/511017/C73521-P13/C73521-P13.minimised.mol

>  <scratch_subdir>  (525) 
/opt/xchem-fragalysis-2/maxwin/BulkDock/SCRATCH/511017/C73521-P13

>  <fragmenstein_runtime>  (525) 
6.575022459030151

>  <fragmenstein_outcome>  (525) 
too moved

>  <fragmenstein_mode>  (525) 
expansion

>  <fragmenstein_error>  (525) 


$$$$
C73521-P66
     RDKit          3D

 29 31  0  0  0  0  0  0  0  0999 V2000
    6.7066   -3.5192   23.9518 C   0  0  0  0  0  0  0  0  0  0  0  0
    5.5601   -2.4991   24.1221 C   0  0  0  0  0  0  0  0  0  0  0  0
    4.1876   -2.8456   24.9009 C   0  0  0  0  0  0  0  0  0  0  0  0
    3.5525   -2.0200   25.7391 C   0  0  0  0  0  0  0  0  0  0  0  0
    3.8361   -0.8224   25.3703 C   0  0  0  0  0  0  0  0  0  0  0  0
    4.5256   -0.7862   24.1196 C   0  0  0  0  0  0  0  0  0  0  0  0
    5.5701   -1.6539   23.1371 C   0  0  0  0  0  0  0  0  0  0  0  0
    5.6856   -1.7459   21.2891 N   0  0  0  0  0  0  0  0  0  0  0  0
    6.7980   -0.8322   19.9924 C   0  0  0  0  0  0  0  0  0  0  0  0
    7.7371   -0.0716   20.1392 O   0  0  0  0  0  0  0  0  0  0  0  0
    6.1515   -1.0689   18.1352 C   0  0  0  0  0  0  0  0  0  0  0  0
    4.5175   -1.5705   17.6230 C   0  0  0  0  0  0  0  0  0  0  0  0
    3.9934   -1.6474   16.3426 C   0  0  0  0  0  0  0  0  0  0  0  0
    5.0773   -1.0690   15.2102 S   0  0  0  0  0  0  0  0  0  0  0  0
    6.4604   -0.6738   16.6883 C   0  0  0  0  0  0  0  0  0  0  0  0
    3.2198    0.1311   26.1028 O   0  0  0  0  0  0  0  0  0  0  0  0
    2.5683   -0.7217   27.0774 C   0  0  0  0  0  0  0  0  0  0  0  0
    2.7158   -2.1265   26.7703 O   0  0  0  0  0  0  0  0  0  0  0  0
    6.4718   -4.5681   23.8572 H   0  0  0  0  0  0  0  0  0  0  0  0
    7.3671   -3.2092   24.7622 H   0  0  0  0  0  0  0  0  0  0  0  0
    7.1663   -3.5648   22.9740 H   0  0  0  0  0  0  0  0  0  0  0  0
    3.9683   -3.8697   24.9907 H   0  0  0  0  0  0  0  0  0  0  0  0
    4.3556    0.2745   23.9420 H   0  0  0  0  0  0  0  0  0  0  0  0
    5.0722   -2.3540   20.8294 H   0  0  0  0  0  0  0  0  0  0  0  0
    3.7699   -1.8739   18.2834 H   0  0  0  0  0  0  0  0  0  0  0  0
    3.0091   -1.9914   16.0533 H   0  0  0  0  0  0  0  0  0  0  0  0
    7.2334   -0.2305   16.1564 H   0  0  0  0  0  0  0  0  0  0  0  0
    3.0098   -0.5278   28.0631 H   0  0  0  0  0  0  0  0  0  0  0  0
    1.5021   -0.4740   27.1210 H   0  0  0  0  0  0  0  0  0  0  0  0
  1  2  1  0
  2  3  2  0
  3  4  1  0
  4  5  2  0
  5  6  1  0
  6  7  2  0
  7  8  1  0
  8  9  1  0
  9 10  2  0
  9 11  1  0
 11 12  1  0
 12 13  2  0
 13 14  1  0
 14 15  1  0
  5 16  1  0
 16 17  1  0
 17 18  1  0
  7  2  1  0
 15 11  2  0
 18  4  1  0
  1 19  1  0
  1 20  1  0
  1 21  1  0
  3 22  1  0
  6 23  1  0
  8 24  1  0
 12 25  1  0
 13 26  1  0
 15 27  1  0
 17 28  1  0
 17 29  1  0
M  END
>  <Energy>  (526) 
522.05832277460058

>  <compound_id>  (526) 
73521

>  <target_id>  (526) 
1

>  <reference_id>  (526) 
66

>  <inspiration_ids>  (526) 
[13, 66]

>  <energy_score>  (526) 
451.3337954967556

>  <distance_score>  (526) 
7.440723437088579

>  <path>  (526) 
/opt/xchem-fragalysis-2/maxwin/BulkDock/SCRATCH/511017/C73521-P66/C73521-P66.minimised.mol

>  <scratch_subdir>  (526) 
/opt/xchem-fragalysis-2/maxwin/BulkDock/SCRATCH/511017/C73521-P66

>  <fragmenstein_runtime>  (526) 
7.088873863220215

>  <fragmenstein_outcome>  (526) 
too moved

>  <fragmenstein_mode>  (526) 
expansion

>  <fragmenstein_error>  (526) 


$$$$
C73524-P13
     RDKit          3D

 31 33  0  0  0  0  0  0  0  0999 V2000
    4.8029    0.3083   25.9220 C   0  0  0  0  0  0  0  0  0  0  0  0
    4.6818    0.0257   24.4322 C   0  0  0  0  0  0  0  0  0  0  0  0
    4.5814   -1.1675   24.1226 O   0  0  0  0  0  0  0  0  0  0  0  0
    4.5660    1.3279   23.3320 C   0  0  0  0  0  0  0  0  0  0  0  0
    3.9376    2.3740   24.1582 C   0  0  0  0  0  0  0  0  0  0  0  0
    2.9092    3.1344   23.6823 C   0  0  0  0  0  0  0  0  0  0  0  0
    2.3880    2.8877   22.4507 C   0  0  0  0  0  0  0  0  0  0  0  0
    2.8487    1.8220   21.5342 C   0  0  0  0  0  0  0  0  0  0  0  0
    4.3780    1.0270   21.6525 C   0  0  0  0  0  0  0  0  0  0  0  0
    5.8842    0.4937   20.4639 N   0  0  0  0  0  0  0  0  0  0  0  0
    7.1844    1.4984   19.6256 C   0  0  0  0  0  0  0  0  0  0  0  0
    7.3484    2.7060   19.7751 O   0  0  0  0  0  0  0  0  0  0  0  0
    8.1276    0.9791   18.5354 C   0  0  0  0  0  0  0  0  0  0  0  0
    7.8401    0.2446   17.3193 C   0  0  0  0  0  0  0  0  0  0  0  0
    8.7099    0.3103   16.2510 C   0  0  0  0  0  0  0  0  0  0  0  0
    9.6694    1.6729   16.4483 S   0  0  0  0  0  0  0  0  0  0  0  0
    9.0778    1.8962   18.0502 C   0  0  0  0  0  0  0  0  0  0  0  0
    1.3006    3.6927   22.1941 O   0  0  0  0  0  0  0  0  0  0  0  0
    1.2143    4.4455   23.4213 C   0  0  0  0  0  0  0  0  0  0  0  0
    2.2088    4.0587   24.3888 O   0  0  0  0  0  0  0  0  0  0  0  0
    5.1694   -0.5938   26.4236 H   0  0  0  0  0  0  0  0  0  0  0  0
    5.5400    1.0915   26.1134 H   0  0  0  0  0  0  0  0  0  0  0  0
    3.8259    0.5623   26.3398 H   0  0  0  0  0  0  0  0  0  0  0  0
    4.2047    2.5197   25.1974 H   0  0  0  0  0  0  0  0  0  0  0  0
    2.2796    1.9721   20.6199 H   0  0  0  0  0  0  0  0  0  0  0  0
    6.0184   -0.4813   20.2392 H   0  0  0  0  0  0  0  0  0  0  0  0
    6.8955   -0.2543   17.1340 H   0  0  0  0  0  0  0  0  0  0  0  0
    8.6441   -0.2017   15.2973 H   0  0  0  0  0  0  0  0  0  0  0  0
    9.3821    2.8091   18.5491 H   0  0  0  0  0  0  0  0  0  0  0  0
    1.3382    5.5100   23.1916 H   0  0  0  0  0  0  0  0  0  0  0  0
    0.2210    4.2904   23.8574 H   0  0  0  0  0  0  0  0  0  0  0  0
  1  2  1  0
  2  3  2  0
  2  4  1  0
  4  5  2  0
  5  6  1  0
  6  7  2  0
  7  8  1  0
  8  9  2  0
  9 10  1  0
 10 11  1  0
 11 12  2  0
 11 13  1  0
 13 14  1  0
 14 15  2  0
 15 16  1  0
 16 17  1  0
  7 18  1  0
 18 19  1  0
 19 20  1  0
  9  4  1  0
 17 13  2  0
 20  6  1  0
  1 21  1  0
  1 22  1  0
  1 23  1  0
  5 24  1  0
  8 25  1  0
 10 26  1  0
 14 27  1  0
 15 28  1  0
 17 29  1  0
 19 30  1  0
 19 31  1  0
M  END
>  <Energy>  (527) 
405.54562486102395

>  <compound_id>  (527) 
73524

>  <target_id>  (527) 
1

>  <reference_id>  (527) 
13

>  <inspiration_ids>  (527) 
[13, 66]

>  <energy_score>  (527) 
340.63932280927304

>  <distance_score>  (527) 
6.628813091835366

>  <path>  (527) 
/opt/xchem-fragalysis-2/maxwin/BulkDock/SCRATCH/511017/C73524-P13/C73524-P13.minimised.mol

>  <scratch_subdir>  (527) 
/opt/xchem-fragalysis-2/maxwin/BulkDock/SCRATCH/511017/C73524-P13

>  <fragmenstein_runtime>  (527) 
6.940277099609375

>  <fragmenstein_outcome>  (527) 
too moved

>  <fragmenstein_mode>  (527) 
expansion

>  <fragmenstein_error>  (527) 


$$$$
C73524-P66
     RDKit          3D

 31 33  0  0  0  0  0  0  0  0999 V2000
    5.8662   -1.4024   27.0325 C   0  0  0  0  0  0  0  0  0  0  0  0
    6.4351   -1.6148   25.6007 C   0  0  0  0  0  0  0  0  0  0  0  0
    7.6250   -1.2510   25.5749 O   0  0  0  0  0  0  0  0  0  0  0  0
    5.4491   -2.2258   24.1664 C   0  0  0  0  0  0  0  0  0  0  0  0
    4.0722   -2.7969   24.8618 C   0  0  0  0  0  0  0  0  0  0  0  0
    3.4361   -2.0285   25.7417 C   0  0  0  0  0  0  0  0  0  0  0  0
    3.6479   -0.8360   25.2793 C   0  0  0  0  0  0  0  0  0  0  0  0
    4.4320   -0.7759   23.9927 C   0  0  0  0  0  0  0  0  0  0  0  0
    5.3119   -1.6384   22.8172 C   0  0  0  0  0  0  0  0  0  0  0  0
    6.1819   -0.7127   21.2920 N   0  0  0  0  0  0  0  0  0  0  0  0
    7.7528   -1.1208   20.2110 C   0  0  0  0  0  0  0  0  0  0  0  0
    8.1509   -2.1708   20.5231 O   0  0  0  0  0  0  0  0  0  0  0  0
    9.1172   -0.2925   18.8362 C   0  0  0  0  0  0  0  0  0  0  0  0
   10.4295   -0.9854   17.0797 C   0  0  0  0  0  0  0  0  0  0  0  0
   11.1795    0.6635   16.0960 C   0  0  0  0  0  0  0  0  0  0  0  0
   10.9012    2.5324   17.7298 S   0  0  0  0  0  0  0  0  0  0  0  0
    9.9122    1.2847   19.6425 C   0  0  0  0  0  0  0  0  0  0  0  0
    3.0978    0.1391   26.0415 O   0  0  0  0  0  0  0  0  0  0  0  0
    2.4576   -0.6942   27.0475 C   0  0  0  0  0  0  0  0  0  0  0  0
    2.6048   -2.1082   26.7697 O   0  0  0  0  0  0  0  0  0  0  0  0
    5.1536   -2.1287   27.4106 H   0  0  0  0  0  0  0  0  0  0  0  0
    6.7127   -1.4899   27.7280 H   0  0  0  0  0  0  0  0  0  0  0  0
    5.4957   -0.3796   27.1329 H   0  0  0  0  0  0  0  0  0  0  0  0
    3.3328   -3.1275   24.1230 H   0  0  0  0  0  0  0  0  0  0  0  0
    4.3570    0.3166   23.9368 H   0  0  0  0  0  0  0  0  0  0  0  0
    5.9082    0.1983   21.0786 H   0  0  0  0  0  0  0  0  0  0  0  0
   10.1867   -1.8403   16.3998 H   0  0  0  0  0  0  0  0  0  0  0  0
   11.5413    0.8788   15.0931 H   0  0  0  0  0  0  0  0  0  0  0  0
    9.4295    2.0002   20.3058 H   0  0  0  0  0  0  0  0  0  0  0  0
    2.9141   -0.4768   28.0212 H   0  0  0  0  0  0  0  0  0  0  0  0
    1.3919   -0.4467   27.1029 H   0  0  0  0  0  0  0  0  0  0  0  0
  1  2  1  0
  2  3  2  0
  2  4  1  0
  4  5  2  0
  5  6  1  0
  6  7  2  0
  7  8  1  0
  8  9  2  0
  9 10  1  0
 10 11  1  0
 11 12  2  0
 11 13  1  0
 13 14  1  0
 14 15  2  0
 15 16  1  0
 16 17  1  0
  7 18  1  0
 18 19  1  0
 19 20  1  0
  9  4  1  0
 17 13  2  0
 20  6  1  0
  1 21  1  0
  1 22  1  0
  1 23  1  0
  5 24  1  0
  8 25  1  0
 10 26  1  0
 14 27  1  0
 15 28  1  0
 17 29  1  0
 19 30  1  0
 19 31  1  0
M  END
>  <Energy>  (528) 
1536.3236376427999

>  <compound_id>  (528) 
73524

>  <target_id>  (528) 
1

>  <reference_id>  (528) 
66

>  <inspiration_ids>  (528) 
[13, 66]

>  <energy_score>  (528) 
1471.4173355910782

>  <distance_score>  (528) 
6.308617886568199

>  <path>  (528) 
/opt/xchem-fragalysis-2/maxwin/BulkDock/SCRATCH/511017/C73524-P66/C73524-P66.minimised.mol

>  <scratch_subdir>  (528) 
/opt/xchem-fragalysis-2/maxwin/BulkDock/SCRATCH/511017/C73524-P66

>  <fragmenstein_runtime>  (528) 
5.954238414764404

>  <fragmenstein_outcome>  (528) 
too moved

>  <fragmenstein_mode>  (528) 
expansion

>  <fragmenstein_error>  (528) 


$$$$
C73525-P13
     RDKit          3D

 41 44  0  0  0  0  0  0  0  0999 V2000
    4.0462   -1.7297   29.7661 O   0  0  0  0  0  0  0  0  0  0  0  0
    4.5685   -1.2132   28.8210 C   0  0  0  0  0  0  0  0  0  0  0  0
    4.0880   -0.2075   27.9163 N   0  0  0  0  0  0  0  0  0  0  0  0
    2.8371    0.4058   27.8074 C   0  0  0  0  0  0  0  0  0  0  0  0
    2.7638    1.5965   27.0570 C   0  0  0  0  0  0  0  0  0  0  0  0
    1.5440    2.2525   26.8627 C   0  0  0  0  0  0  0  0  0  0  0  0
    0.4122    1.6541   27.3669 C   0  0  0  0  0  0  0  0  0  0  0  0
    0.4732    0.4935   28.1023 C   0  0  0  0  0  0  0  0  0  0  0  0
    1.6757   -0.1379   28.3712 C   0  0  0  0  0  0  0  0  0  0  0  0
   -0.7649    0.0639   28.4741 O   0  0  0  0  0  0  0  0  0  0  0  0
   -1.6022    0.9907   27.7468 C   0  0  0  0  0  0  0  0  0  0  0  0
   -0.8612    2.0812   27.1618 O   0  0  0  0  0  0  0  0  0  0  0  0
    5.8951   -1.5107   28.4826 N   0  0  0  0  0  0  0  0  0  0  0  0
    6.1598   -2.6107   27.5723 C   0  0  0  0  0  0  0  0  0  0  0  0
    7.6555   -2.8270   27.3609 C   0  0  0  0  0  0  0  0  0  0  0  0
    8.2652   -1.5073   26.8604 C   0  0  0  0  0  0  0  0  0  0  0  0
    9.6872   -1.6176   26.2859 C   0  0  0  0  0  0  0  0  0  0  0  0
   10.4861   -0.4977   25.8525 C   0  0  0  0  0  0  0  0  0  0  0  0
   11.6967   -0.8686   25.3059 C   0  0  0  0  0  0  0  0  0  0  0  0
   11.8861   -2.5638   25.2559 S   0  0  0  0  0  0  0  0  0  0  0  0
   10.3640   -2.7958   26.0001 C   0  0  0  0  0  0  0  0  0  0  0  0
    8.0689   -0.4143   27.9463 C   0  0  0  0  0  0  0  0  0  0  0  0
    7.0147   -0.7534   29.0153 C   0  0  0  0  0  0  0  0  0  0  0  0
    4.8329    0.0498   27.2850 H   0  0  0  0  0  0  0  0  0  0  0  0
    3.6615    2.0273   26.6203 H   0  0  0  0  0  0  0  0  0  0  0  0
    1.4810    3.1679   26.2855 H   0  0  0  0  0  0  0  0  0  0  0  0
    1.6925   -1.0580   28.9437 H   0  0  0  0  0  0  0  0  0  0  0  0
   -2.3440    1.4046   28.4341 H   0  0  0  0  0  0  0  0  0  0  0  0
   -2.1244    0.4469   26.9500 H   0  0  0  0  0  0  0  0  0  0  0  0
    5.6983   -3.5133   27.9888 H   0  0  0  0  0  0  0  0  0  0  0  0
    5.6512   -2.3994   26.6240 H   0  0  0  0  0  0  0  0  0  0  0  0
    7.7928   -3.6571   26.6654 H   0  0  0  0  0  0  0  0  0  0  0  0
    8.1409   -3.1379   28.2953 H   0  0  0  0  0  0  0  0  0  0  0  0
    7.6581   -1.1835   26.0015 H   0  0  0  0  0  0  0  0  0  0  0  0
   10.1775    0.5377   25.9281 H   0  0  0  0  0  0  0  0  0  0  0  0
   12.4626   -0.2257   24.8952 H   0  0  0  0  0  0  0  0  0  0  0  0
   10.0293   -3.8085   26.1714 H   0  0  0  0  0  0  0  0  0  0  0  0
    7.7734    0.5152   27.4414 H   0  0  0  0  0  0  0  0  0  0  0  0
    9.0152   -0.1923   28.4549 H   0  0  0  0  0  0  0  0  0  0  0  0
    7.4691   -1.3716   29.7990 H   0  0  0  0  0  0  0  0  0  0  0  0
    6.6496    0.1585   29.5010 H   0  0  0  0  0  0  0  0  0  0  0  0
  1  2  2  0
  2  3  1  0
  3  4  1  0
  4  5  2  0
  5  6  1  0
  6  7  2  0
  7  8  1  0
  8  9  2  0
  8 10  1  0
 10 11  1  0
 11 12  1  0
  2 13  1  0
 13 14  1  0
 14 15  1  0
 15 16  1  0
 16 17  1  0
 17 18  1  0
 18 19  2  0
 19 20  1  0
 20 21  1  0
 16 22  1  0
 22 23  1  0
  9  4  1  0
 23 13  1  0
 12  7  1  0
 21 17  2  0
  3 24  1  0
  5 25  1  0
  6 26  1  0
  9 27  1  0
 11 28  1  0
 11 29  1  0
 14 30  1  0
 14 31  1  0
 15 32  1  0
 15 33  1  0
 16 34  1  0
 18 35  1  0
 19 36  1  0
 21 37  1  0
 22 38  1  0
 22 39  1  0
 23 40  1  0
 23 41  1  0
M  END
>  <Energy>  (529) 
-11.690588008746174

>  <compound_id>  (529) 
73525

>  <target_id>  (529) 
1

>  <reference_id>  (529) 
13

>  <inspiration_ids>  (529) 
[13, 66]

>  <energy_score>  (529) 
-37.32097370089258

>  <distance_score>  (529) 
7.122943464857085

>  <path>  (529) 
/opt/xchem-fragalysis-2/maxwin/BulkDock/SCRATCH/511017/C73525-P13/C73525-P13.minimised.mol

>  <scratch_subdir>  (529) 
/opt/xchem-fragalysis-2/maxwin/BulkDock/SCRATCH/511017/C73525-P13

>  <fragmenstein_runtime>  (529) 
12.823720693588257

>  <fragmenstein_outcome>  (529) 
too moved

>  <fragmenstein_mode>  (529) 
expansion

>  <fragmenstein_error>  (529) 


$$$$
C73525-P66
     RDKit          3D

 41 44  0  0  0  0  0  0  0  0999 V2000
    6.6298    1.1712   29.8804 O   0  0  0  0  0  0  0  0  0  0  0  0
    6.7147    0.7857   28.7498 C   0  0  0  0  0  0  0  0  0  0  0  0
    5.7145    0.2857   27.8520 N   0  0  0  0  0  0  0  0  0  0  0  0
    4.3270    0.1824   27.9897 C   0  0  0  0  0  0  0  0  0  0  0  0
    3.6511   -0.7254   27.1602 C   0  0  0  0  0  0  0  0  0  0  0  0
    2.2589   -0.8386   27.2140 C   0  0  0  0  0  0  0  0  0  0  0  0
    1.5584    0.0319   28.0145 C   0  0  0  0  0  0  0  0  0  0  0  0
    2.2106    0.9257   28.8244 C   0  0  0  0  0  0  0  0  0  0  0  0
    3.5951    0.9940   28.8690 C   0  0  0  0  0  0  0  0  0  0  0  0
    1.3396    1.7118   29.5172 O   0  0  0  0  0  0  0  0  0  0  0  0
    0.0753    1.2452   29.0010 C   0  0  0  0  0  0  0  0  0  0  0  0
    0.2052    0.1387   28.0903 O   0  0  0  0  0  0  0  0  0  0  0  0
    7.9387    0.8821   28.0716 N   0  0  0  0  0  0  0  0  0  0  0  0
    8.9427   -0.1750   28.0907 C   0  0  0  0  0  0  0  0  0  0  0  0
    9.6897   -0.3607   26.7533 C   0  0  0  0  0  0  0  0  0  0  0  0
   10.1479    0.9891   26.1604 C   0  0  0  0  0  0  0  0  0  0  0  0
   10.9872    0.8839   24.8712 C   0  0  0  0  0  0  0  0  0  0  0  0
   12.1496    0.0446   24.7260 C   0  0  0  0  0  0  0  0  0  0  0  0
   12.8215    0.2331   23.5376 C   0  0  0  0  0  0  0  0  0  0  0  0
   12.0683    1.4054   22.5612 S   0  0  0  0  0  0  0  0  0  0  0  0
   10.8289    1.6372   23.7154 C   0  0  0  0  0  0  0  0  0  0  0  0
    8.8820    1.8430   26.0041 C   0  0  0  0  0  0  0  0  0  0  0  0
    8.1962    2.0958   27.3279 C   0  0  0  0  0  0  0  0  0  0  0  0
    6.1628   -0.0268   27.0006 H   0  0  0  0  0  0  0  0  0  0  0  0
    4.1999   -1.3730   26.4775 H   0  0  0  0  0  0  0  0  0  0  0  0
    1.7528   -1.5756   26.6078 H   0  0  0  0  0  0  0  0  0  0  0  0
    4.0855    1.7118   29.5172 H   0  0  0  0  0  0  0  0  0  0  0  0
   -0.4209    2.0742   28.4827 H   0  0  0  0  0  0  0  0  0  0  0  0
   -0.5519    0.9340   29.8441 H   0  0  0  0  0  0  0  0  0  0  0  0
    9.6644    0.1035   28.8679 H   0  0  0  0  0  0  0  0  0  0  0  0
    8.4733   -1.1135   28.4052 H   0  0  0  0  0  0  0  0  0  0  0  0
    9.0280   -0.8681   26.0387 H   0  0  0  0  0  0  0  0  0  0  0  0
   10.5433   -1.0285   26.9159 H   0  0  0  0  0  0  0  0  0  0  0  0
   10.8041    1.4796   26.8946 H   0  0  0  0  0  0  0  0  0  0  0  0
   12.4987   -0.6518   25.4787 H   0  0  0  0  0  0  0  0  0  0  0  0
   13.7131   -0.2752   23.1970 H   0  0  0  0  0  0  0  0  0  0  0  0
   10.0636    2.3675   23.4949 H   0  0  0  0  0  0  0  0  0  0  0  0
    8.1987    1.2973   25.3552 H   0  0  0  0  0  0  0  0  0  0  0  0
    9.1029    2.8085   25.5367 H   0  0  0  0  0  0  0  0  0  0  0  0
    7.2604    2.6465   27.1761 H   0  0  0  0  0  0  0  0  0  0  0  0
    8.8351    2.7216   27.9628 H   0  0  0  0  0  0  0  0  0  0  0  0
  1  2  2  0
  2  3  1  0
  3  4  1  0
  4  5  2  0
  5  6  1  0
  6  7  2  0
  7  8  1  0
  8  9  2  0
  8 10  1  0
 10 11  1  0
 11 12  1  0
  2 13  1  0
 13 14  1  0
 14 15  1  0
 15 16  1  0
 16 17  1  0
 17 18  1  0
 18 19  2  0
 19 20  1  0
 20 21  1  0
 16 22  1  0
 22 23  1  0
  9  4  1  0
 23 13  1  0
 12  7  1  0
 21 17  2  0
  3 24  1  0
  5 25  1  0
  6 26  1  0
  9 27  1  0
 11 28  1  0
 11 29  1  0
 14 30  1  0
 14 31  1  0
 15 32  1  0
 15 33  1  0
 16 34  1  0
 18 35  1  0
 19 36  1  0
 21 37  1  0
 22 38  1  0
 22 39  1  0
 23 40  1  0
 23 41  1  0
M  END
>  <Energy>  (530) 
-14.546939151895625

>  <compound_id>  (530) 
73525

>  <target_id>  (530) 
1

>  <reference_id>  (530) 
66

>  <inspiration_ids>  (530) 
[13, 66]

>  <energy_score>  (530) 
-40.17732484404593

>  <distance_score>  (530) 
7.6265932891535835

>  <path>  (530) 
/opt/xchem-fragalysis-2/maxwin/BulkDock/SCRATCH/511017/C73525-P66/C73525-P66.minimised.mol

>  <scratch_subdir>  (530) 
/opt/xchem-fragalysis-2/maxwin/BulkDock/SCRATCH/511017/C73525-P66

>  <fragmenstein_runtime>  (530) 
16.06718611717224

>  <fragmenstein_outcome>  (530) 
too moved

>  <fragmenstein_mode>  (530) 
expansion

>  <fragmenstein_error>  (530) 


$$$$
C73532-P13
     RDKit          3D

 51 53  0  0  0  0  0  0  0  0999 V2000
    9.7491    3.0855   15.6714 C   0  0  0  0  0  0  0  0  0  0  0  0
    8.4953    2.3511   16.1421 C   0  0  0  0  0  0  0  0  0  0  0  0
    8.6427    1.7162   17.4725 N   0  0  0  0  0  0  0  0  0  0  0  0
    8.2311    2.6424   18.5415 C   0  0  0  0  0  0  0  0  0  0  0  0
    8.7092    4.0938   18.5421 C   0  0  0  0  0  0  0  0  0  0  0  0
    7.9714    0.3365   17.5115 C   0  0  0  0  0  0  0  0  0  0  0  0
    7.2876   -0.0886   19.1977 C   0  0  0  0  0  0  0  0  0  0  0  0
    6.5486   -1.0618   20.5572 N   0  0  0  0  0  0  0  0  0  0  0  0
    5.0864   -0.6948   21.6879 C   0  0  0  0  0  0  0  0  0  0  0  0
    4.3938    0.2734   21.5198 O   0  0  0  0  0  0  0  0  0  0  0  0
    5.0212   -1.8270   23.0715 N   0  0  0  0  0  0  0  0  0  0  0  0
    4.2457   -1.7696   24.3126 C   0  0  0  0  0  0  0  0  0  0  0  0
    4.1082   -0.4343   24.8580 C   0  0  0  0  0  0  0  0  0  0  0  0
    3.6025   -0.1373   26.1228 C   0  0  0  0  0  0  0  0  0  0  0  0
    3.4174   -1.1128   27.0459 C   0  0  0  0  0  0  0  0  0  0  0  0
    3.8448   -2.3850   26.7616 C   0  0  0  0  0  0  0  0  0  0  0  0
    4.3456   -2.7119   25.4352 C   0  0  0  0  0  0  0  0  0  0  0  0
    4.9847   -4.0772   25.4662 C   0  0  0  0  0  0  0  0  0  0  0  0
    2.8513   -0.6590   28.1900 O   0  0  0  0  0  0  0  0  0  0  0  0
    2.6184    0.7227   27.8345 C   0  0  0  0  0  0  0  0  0  0  0  0
    3.2233    1.0883   26.5770 O   0  0  0  0  0  0  0  0  0  0  0  0
    8.9354   -0.4934   16.4959 C   0  0  0  0  0  0  0  0  0  0  0  0
    8.5732   -1.3464   15.3894 C   0  0  0  0  0  0  0  0  0  0  0  0
    9.7312   -1.8817   14.8399 C   0  0  0  0  0  0  0  0  0  0  0  0
   10.9400   -0.6553   14.8352 S   0  0  0  0  0  0  0  0  0  0  0  0
   10.3179   -0.4760   16.4091 C   0  0  0  0  0  0  0  0  0  0  0  0
    9.6078    3.4282   14.6405 H   0  0  0  0  0  0  0  0  0  0  0  0
   10.6230    2.4290   15.6792 H   0  0  0  0  0  0  0  0  0  0  0  0
    9.9834    3.9657   16.2710 H   0  0  0  0  0  0  0  0  0  0  0  0
    7.6282    3.0221   16.1126 H   0  0  0  0  0  0  0  0  0  0  0  0
    8.3059    1.6051   15.3684 H   0  0  0  0  0  0  0  0  0  0  0  0
    7.1519    2.7278   18.5392 H   0  0  0  0  0  0  0  0  0  0  0  0
    8.5442    2.2268   19.5013 H   0  0  0  0  0  0  0  0  0  0  0  0
    9.7937    4.1787   18.5630 H   0  0  0  0  0  0  0  0  0  0  0  0
    8.3210    4.6533   17.6861 H   0  0  0  0  0  0  0  0  0  0  0  0
    8.3337    4.5964   19.4412 H   0  0  0  0  0  0  0  0  0  0  0  0
    7.1176    0.2142   16.8592 H   0  0  0  0  0  0  0  0  0  0  0  0
    8.2652   -0.0119   19.6719 H   0  0  0  0  0  0  0  0  0  0  0  0
    6.8310    0.8308   19.4138 H   0  0  0  0  0  0  0  0  0  0  0  0
    6.9302   -1.9320   20.8005 H   0  0  0  0  0  0  0  0  0  0  0  0
    5.6594   -2.5983   22.9128 H   0  0  0  0  0  0  0  0  0  0  0  0
    4.4348    0.4340   24.2895 H   0  0  0  0  0  0  0  0  0  0  0  0
    3.8278   -3.1335   27.5499 H   0  0  0  0  0  0  0  0  0  0  0  0
    5.6487   -4.2747   24.6309 H   0  0  0  0  0  0  0  0  0  0  0  0
    4.2168   -4.8552   25.5136 H   0  0  0  0  0  0  0  0  0  0  0  0
    5.6181   -4.1762   26.3570 H   0  0  0  0  0  0  0  0  0  0  0  0
    1.5372    0.8971   27.7749 H   0  0  0  0  0  0  0  0  0  0  0  0
    3.0369    1.3596   28.6216 H   0  0  0  0  0  0  0  0  0  0  0  0
    7.5736   -1.6606   15.1223 H   0  0  0  0  0  0  0  0  0  0  0  0
    9.9542   -2.6953   14.2046 H   0  0  0  0  0  0  0  0  0  0  0  0
   10.9376   -1.2013   16.9219 H   0  0  0  0  0  0  0  0  0  0  0  0
  1  2  1  0
  2  3  1  0
  3  4  1  0
  4  5  1  0
  3  6  1  0
  6  7  1  0
  7  8  1  0
  8  9  1  0
  9 10  2  0
  9 11  1  0
 11 12  1  0
 12 13  2  0
 13 14  1  0
 14 15  2  0
 15 16  1  0
 16 17  2  0
 17 18  1  0
 15 19  1  0
 19 20  1  0
 20 21  1  0
  6 22  1  0
 22 23  1  0
 23 24  2  0
 24 25  1  0
 25 26  1  0
 17 12  1  0
 26 22  2  0
 21 14  1  0
  1 27  1  0
  1 28  1  0
  1 29  1  0
  2 30  1  0
  2 31  1  0
  4 32  1  0
  4 33  1  0
  5 34  1  0
  5 35  1  0
  5 36  1  0
  6 37  1  0
  7 38  1  0
  7 39  1  0
  8 40  1  0
 11 41  1  0
 13 42  1  0
 16 43  1  0
 18 44  1  0
 18 45  1  0
 18 46  1  0
 20 47  1  0
 20 48  1  0
 23 49  1  0
 24 50  1  0
 26 51  1  0
M  END
>  <Energy>  (531) 
330.85133867691729

>  <compound_id>  (531) 
73532

>  <target_id>  (531) 
1

>  <reference_id>  (531) 
13

>  <inspiration_ids>  (531) 
[13, 66]

>  <energy_score>  (531) 
244.13540555384537

>  <distance_score>  (531) 
5.254898579271284

>  <path>  (531) 
/opt/xchem-fragalysis-2/maxwin/BulkDock/SCRATCH/511017/C73532-P13/C73532-P13.minimised.mol

>  <scratch_subdir>  (531) 
/opt/xchem-fragalysis-2/maxwin/BulkDock/SCRATCH/511017/C73532-P13

>  <fragmenstein_runtime>  (531) 
9.771939516067505

>  <fragmenstein_outcome>  (531) 
too moved

>  <fragmenstein_mode>  (531) 
expansion

>  <fragmenstein_error>  (531) 


$$$$
C73532-P66
     RDKit          3D

 51 53  0  0  0  0  0  0  0  0999 V2000
   12.4621   -0.4001   14.6292 C   0  0  0  0  0  0  0  0  0  0  0  0
   11.1736   -1.1829   14.3111 C   0  0  0  0  0  0  0  0  0  0  0  0
    9.7496   -1.0813   14.9165 N   0  0  0  0  0  0  0  0  0  0  0  0
    9.2096    0.1603   14.2394 C   0  0  0  0  0  0  0  0  0  0  0  0
    9.9434    1.5327   14.4265 C   0  0  0  0  0  0  0  0  0  0  0  0
    9.2060   -1.5590   16.6808 C   0  0  0  0  0  0  0  0  0  0  0  0
    8.3156   -0.6448   18.5377 C   0  0  0  0  0  0  0  0  0  0  0  0
    7.4764   -1.3808   20.2369 N   0  0  0  0  0  0  0  0  0  0  0  0
    6.0999   -0.7810   21.2980 C   0  0  0  0  0  0  0  0  0  0  0  0
    5.5796    0.2308   21.1336 O   0  0  0  0  0  0  0  0  0  0  0  0
    5.6281   -1.8126   22.7776 N   0  0  0  0  0  0  0  0  0  0  0  0
    4.5428   -1.4728   24.1558 C   0  0  0  0  0  0  0  0  0  0  0  0
    3.9950   -0.2736   24.7166 C   0  0  0  0  0  0  0  0  0  0  0  0
    3.1967    0.0042   25.8736 C   0  0  0  0  0  0  0  0  0  0  0  0
    2.8604   -0.9916   26.6937 C   0  0  0  0  0  0  0  0  0  0  0  0
    3.5305   -2.1305   26.4436 C   0  0  0  0  0  0  0  0  0  0  0  0
    4.5972   -2.0569   25.4045 C   0  0  0  0  0  0  0  0  0  0  0  0
    5.9035   -1.4541   26.3066 C   0  0  0  0  0  0  0  0  0  0  0  0
    2.0749   -0.6243   27.7220 O   0  0  0  0  0  0  0  0  0  0  0  0
    1.9249    0.7823   27.4274 C   0  0  0  0  0  0  0  0  0  0  0  0
    2.6880    1.2038   26.2737 O   0  0  0  0  0  0  0  0  0  0  0  0
   10.8738   -2.5222   16.4743 C   0  0  0  0  0  0  0  0  0  0  0  0
   10.9516   -3.7570   15.7317 C   0  0  0  0  0  0  0  0  0  0  0  0
   11.8596   -4.6269   16.2961 C   0  0  0  0  0  0  0  0  0  0  0  0
   13.2009   -3.8292   16.8899 S   0  0  0  0  0  0  0  0  0  0  0  0
   12.2622   -2.4006   16.7963 C   0  0  0  0  0  0  0  0  0  0  0  0
   12.7435    0.2300   13.7745 H   0  0  0  0  0  0  0  0  0  0  0  0
   13.3036   -1.0834   14.7788 H   0  0  0  0  0  0  0  0  0  0  0  0
   12.4114    0.2697   15.4763 H   0  0  0  0  0  0  0  0  0  0  0  0
   11.0721   -0.8089   13.2875 H   0  0  0  0  0  0  0  0  0  0  0  0
   11.4284   -2.2180   14.0670 H   0  0  0  0  0  0  0  0  0  0  0  0
    9.1420    0.0951   13.1572 H   0  0  0  0  0  0  0  0  0  0  0  0
    8.1767    0.1619   14.5274 H   0  0  0  0  0  0  0  0  0  0  0  0
   10.9448    1.4746   14.8356 H   0  0  0  0  0  0  0  0  0  0  0  0
   10.0546    2.0374   13.4590 H   0  0  0  0  0  0  0  0  0  0  0  0
    9.3831    2.1956   15.0964 H   0  0  0  0  0  0  0  0  0  0  0  0
    8.3716   -1.9416   16.0285 H   0  0  0  0  0  0  0  0  0  0  0  0
    9.0681   -0.1920   19.1832 H   0  0  0  0  0  0  0  0  0  0  0  0
    7.5563    0.0501   18.2248 H   0  0  0  0  0  0  0  0  0  0  0  0
    7.7189   -2.3133   20.5034 H   0  0  0  0  0  0  0  0  0  0  0  0
    6.1034   -2.6860   22.7285 H   0  0  0  0  0  0  0  0  0  0  0  0
    4.0913    0.6029   24.1632 H   0  0  0  0  0  0  0  0  0  0  0  0
    3.6178   -2.8228   27.2681 H   0  0  0  0  0  0  0  0  0  0  0  0
    5.9226   -1.9153   27.3032 H   0  0  0  0  0  0  0  0  0  0  0  0
    5.8170   -0.3743   26.4662 H   0  0  0  0  0  0  0  0  0  0  0  0
    6.8420   -1.6711   25.7924 H   0  0  0  0  0  0  0  0  0  0  0  0
    0.8644    0.9974   27.2509 H   0  0  0  0  0  0  0  0  0  0  0  0
    2.2611    1.3589   28.2968 H   0  0  0  0  0  0  0  0  0  0  0  0
   10.1767   -4.0608   15.0558 H   0  0  0  0  0  0  0  0  0  0  0  0
   11.8966   -5.6987   16.2318 H   0  0  0  0  0  0  0  0  0  0  0  0
   12.9346   -1.6485   17.1642 H   0  0  0  0  0  0  0  0  0  0  0  0
  1  2  1  0
  2  3  1  0
  3  4  1  0
  4  5  1  0
  3  6  1  0
  6  7  1  0
  7  8  1  0
  8  9  1  0
  9 10  2  0
  9 11  1  0
 11 12  1  0
 12 13  2  0
 13 14  1  0
 14 15  2  0
 15 16  1  0
 16 17  2  0
 17 18  1  0
 15 19  1  0
 19 20  1  0
 20 21  1  0
  6 22  1  0
 22 23  1  0
 23 24  2  0
 24 25  1  0
 25 26  1  0
 17 12  1  0
 26 22  2  0
 21 14  1  0
  1 27  1  0
  1 28  1  0
  1 29  1  0
  2 30  1  0
  2 31  1  0
  4 32  1  0
  4 33  1  0
  5 34  1  0
  5 35  1  0
  5 36  1  0
  6 37  1  0
  7 38  1  0
  7 39  1  0
  8 40  1  0
 11 41  1  0
 13 42  1  0
 16 43  1  0
 18 44  1  0
 18 45  1  0
 18 46  1  0
 20 47  1  0
 20 48  1  0
 23 49  1  0
 24 50  1  0
 26 51  1  0
M  END
>  <Energy>  (532) 
765.62112577132029

>  <compound_id>  (532) 
73532

>  <target_id>  (532) 
1

>  <reference_id>  (532) 
66

>  <inspiration_ids>  (532) 
[13, 66]

>  <energy_score>  (532) 
678.9051926482641

>  <distance_score>  (532) 
4.715122847633087

>  <path>  (532) 
/opt/xchem-fragalysis-2/maxwin/BulkDock/SCRATCH/511017/C73532-P66/C73532-P66.minimised.mol

>  <scratch_subdir>  (532) 
/opt/xchem-fragalysis-2/maxwin/BulkDock/SCRATCH/511017/C73532-P66

>  <fragmenstein_runtime>  (532) 
11.506868839263916

>  <fragmenstein_outcome>  (532) 
too moved

>  <fragmenstein_mode>  (532) 
expansion

>  <fragmenstein_error>  (532) 


$$$$
C73533-P13
     RDKit          3D

 35 37  0  0  0  0  0  0  0  0999 V2000
    7.3453   -0.2291   20.1964 O   0  0  0  0  0  0  0  0  0  0  0  0
    6.3119    0.3539   19.9128 C   0  0  0  0  0  0  0  0  0  0  0  0
    4.8392    0.9806   21.0626 N   0  0  0  0  0  0  0  0  0  0  0  0
    4.6569    1.0049   22.9879 C   0  0  0  0  0  0  0  0  0  0  0  0
    3.7675    1.5411   24.2408 C   0  0  0  0  0  0  0  0  0  0  0  0
    3.4027    1.4237   25.3911 C   0  0  0  0  0  0  0  0  0  0  0  0
    3.1651    0.8552   26.7459 C   0  0  0  0  0  0  0  0  0  0  0  0
    2.4240    1.7151   27.6160 O   0  0  0  0  0  0  0  0  0  0  0  0
    1.0752    1.5568   27.4732 C   0  0  0  0  0  0  0  0  0  0  0  0
    0.4181    0.3884   27.8962 C   0  0  0  0  0  0  0  0  0  0  0  0
   -0.9553    0.2487   27.6859 C   0  0  0  0  0  0  0  0  0  0  0  0
   -1.6177    1.2959   27.0827 C   0  0  0  0  0  0  0  0  0  0  0  0
   -0.9706    2.4493   26.7098 C   0  0  0  0  0  0  0  0  0  0  0  0
    0.3765    2.6186   26.9050 C   0  0  0  0  0  0  0  0  0  0  0  0
   -1.7961    3.3391   26.1021 O   0  0  0  0  0  0  0  0  0  0  0  0
   -3.0627    2.6756   26.2709 C   0  0  0  0  0  0  0  0  0  0  0  0
   -2.9329    1.3244   26.7508 O   0  0  0  0  0  0  0  0  0  0  0  0
    6.3389    0.7291   18.3147 C   0  0  0  0  0  0  0  0  0  0  0  0
    6.0323   -0.0127   17.1236 C   0  0  0  0  0  0  0  0  0  0  0  0
    7.0808   -0.0125   16.2191 C   0  0  0  0  0  0  0  0  0  0  0  0
    8.2495    1.1715   16.5720 S   0  0  0  0  0  0  0  0  0  0  0  0
    7.4398    1.5612   18.0208 C   0  0  0  0  0  0  0  0  0  0  0  0
    4.0884    1.3456   20.5427 H   0  0  0  0  0  0  0  0  0  0  0  0
    5.0166    2.0085   23.0455 H   0  0  0  0  0  0  0  0  0  0  0  0
    5.0773    0.1078   23.4603 H   0  0  0  0  0  0  0  0  0  0  0  0
    2.7228   -0.1450   26.6742 H   0  0  0  0  0  0  0  0  0  0  0  0
    4.1408    0.7099   27.2251 H   0  0  0  0  0  0  0  0  0  0  0  0
    0.9737   -0.4205   28.3603 H   0  0  0  0  0  0  0  0  0  0  0  0
   -1.4811   -0.6622   27.9510 H   0  0  0  0  0  0  0  0  0  0  0  0
    0.8794    3.5265   26.5950 H   0  0  0  0  0  0  0  0  0  0  0  0
   -3.5896    2.6712   25.3133 H   0  0  0  0  0  0  0  0  0  0  0  0
   -3.6493    3.2425   26.9927 H   0  0  0  0  0  0  0  0  0  0  0  0
    5.1896   -0.6863   17.0490 H   0  0  0  0  0  0  0  0  0  0  0  0
    7.1835   -0.6225   15.3280 H   0  0  0  0  0  0  0  0  0  0  0  0
    7.9431    2.2275   18.7107 H   0  0  0  0  0  0  0  0  0  0  0  0
  1  2  2  0
  2  3  1  0
  3  4  1  0
  4  5  1  0
  5  6  3  0
  6  7  1  0
  7  8  1  0
  8  9  1  0
  9 10  2  0
 10 11  1  0
 11 12  2  0
 12 13  1  0
 13 14  2  0
 13 15  1  0
 15 16  1  0
 16 17  1  0
  2 18  1  0
 18 19  1  0
 19 20  2  0
 20 21  1  0
 21 22  1  0
 14  9  1  0
 22 18  2  0
 17 12  1  0
  3 23  1  0
  4 24  1  0
  4 25  1  0
  7 26  1  0
  7 27  1  0
 10 28  1  0
 11 29  1  0
 14 30  1  0
 16 31  1  0
 16 32  1  0
 19 33  1  0
 20 34  1  0
 22 35  1  0
M  END
>  <Energy>  (533) 
285.83361165105561

>  <compound_id>  (533) 
73533

>  <target_id>  (533) 
1

>  <reference_id>  (533) 
13

>  <inspiration_ids>  (533) 
[13, 66]

>  <energy_score>  (533) 
237.38044168864576

>  <distance_score>  (533) 
5.886898862285732

>  <path>  (533) 
/opt/xchem-fragalysis-2/maxwin/BulkDock/SCRATCH/511017/C73533-P13/C73533-P13.minimised.mol

>  <scratch_subdir>  (533) 
/opt/xchem-fragalysis-2/maxwin/BulkDock/SCRATCH/511017/C73533-P13

>  <fragmenstein_runtime>  (533) 
6.770604610443115

>  <fragmenstein_outcome>  (533) 
too moved

>  <fragmenstein_mode>  (533) 
expansion

>  <fragmenstein_error>  (533) 


$$$$
C73533-P66
     RDKit          3D

 35 37  0  0  0  0  0  0  0  0999 V2000
    8.0368   -3.6793   21.3460 O   0  0  0  0  0  0  0  0  0  0  0  0
    7.7877   -2.7110   20.7369 C   0  0  0  0  0  0  0  0  0  0  0  0
    6.5855   -1.7290   20.8506 N   0  0  0  0  0  0  0  0  0  0  0  0
    5.4648   -1.6984   21.8458 C   0  0  0  0  0  0  0  0  0  0  0  0
    5.1180   -1.8430   23.4406 C   0  0  0  0  0  0  0  0  0  0  0  0
    4.5430   -1.7978   24.5151 C   0  0  0  0  0  0  0  0  0  0  0  0
    3.5687   -1.7115   25.6363 C   0  0  0  0  0  0  0  0  0  0  0  0
    3.9122   -0.7870   26.6888 O   0  0  0  0  0  0  0  0  0  0  0  0
    2.8051   -0.1633   27.2309 C   0  0  0  0  0  0  0  0  0  0  0  0
    2.9352    1.2191   27.4540 C   0  0  0  0  0  0  0  0  0  0  0  0
    1.8383    1.9878   27.8615 C   0  0  0  0  0  0  0  0  0  0  0  0
    0.6347    1.3424   28.0421 C   0  0  0  0  0  0  0  0  0  0  0  0
    0.5162   -0.0187   27.8861 C   0  0  0  0  0  0  0  0  0  0  0  0
    1.5905   -0.8062   27.5111 C   0  0  0  0  0  0  0  0  0  0  0  0
   -0.7601   -0.4478   28.0924 O   0  0  0  0  0  0  0  0  0  0  0  0
   -1.4407    0.8068   28.2986 C   0  0  0  0  0  0  0  0  0  0  0  0
   -0.5469    1.9360   28.3612 O   0  0  0  0  0  0  0  0  0  0  0  0
    8.9165   -2.3317   19.3131 C   0  0  0  0  0  0  0  0  0  0  0  0
    9.3216   -2.0004   17.1272 C   0  0  0  0  0  0  0  0  0  0  0  0
   10.9155   -2.5740   16.6856 C   0  0  0  0  0  0  0  0  0  0  0  0
   12.1647   -3.5733   18.2373 S   0  0  0  0  0  0  0  0  0  0  0  0
   10.5466   -3.1820   20.1036 C   0  0  0  0  0  0  0  0  0  0  0  0
    6.6389   -1.0402   20.1111 H   0  0  0  0  0  0  0  0  0  0  0  0
    4.8771   -0.8460   21.6406 H   0  0  0  0  0  0  0  0  0  0  0  0
    5.2923   -2.7147   21.5433 H   0  0  0  0  0  0  0  0  0  0  0  0
    3.3893   -2.6885   26.0813 H   0  0  0  0  0  0  0  0  0  0  0  0
    2.6609   -1.3616   25.1667 H   0  0  0  0  0  0  0  0  0  0  0  0
    3.8900    1.6999   27.2569 H   0  0  0  0  0  0  0  0  0  0  0  0
    1.9247    3.0599   27.9955 H   0  0  0  0  0  0  0  0  0  0  0  0
    1.4614   -1.8723   27.3692 H   0  0  0  0  0  0  0  0  0  0  0  0
   -1.9994    0.7504   29.2396 H   0  0  0  0  0  0  0  0  0  0  0  0
   -2.1509    0.9622   27.4775 H   0  0  0  0  0  0  0  0  0  0  0  0
    8.6847   -1.7112   16.2338 H   0  0  0  0  0  0  0  0  0  0  0  0
   11.3707   -2.6501   15.7060 H   0  0  0  0  0  0  0  0  0  0  0  0
   11.1010   -3.7740   20.8879 H   0  0  0  0  0  0  0  0  0  0  0  0
  1  2  2  0
  2  3  1  0
  3  4  1  0
  4  5  1  0
  5  6  3  0
  6  7  1  0
  7  8  1  0
  8  9  1  0
  9 10  2  0
 10 11  1  0
 11 12  2  0
 12 13  1  0
 13 14  2  0
 13 15  1  0
 15 16  1  0
 16 17  1  0
  2 18  1  0
 18 19  1  0
 19 20  2  0
 20 21  1  0
 21 22  1  0
 14  9  1  0
 22 18  2  0
 17 12  1  0
  3 23  1  0
  4 24  1  0
  4 25  1  0
  7 26  1  0
  7 27  1  0
 10 28  1  0
 11 29  1  0
 14 30  1  0
 16 31  1  0
 16 32  1  0
 19 33  1  0
 20 34  1  0
 22 35  1  0
M  END
>  <Energy>  (534) 
720.70384566308417

>  <compound_id>  (534) 
73533

>  <target_id>  (534) 
1

>  <reference_id>  (534) 
66

>  <inspiration_ids>  (534) 
[13, 66]

>  <energy_score>  (534) 
672.2506757006813

>  <distance_score>  (534) 
5.444535404140453

>  <path>  (534) 
/opt/xchem-fragalysis-2/maxwin/BulkDock/SCRATCH/511017/C73533-P66/C73533-P66.minimised.mol

>  <scratch_subdir>  (534) 
/opt/xchem-fragalysis-2/maxwin/BulkDock/SCRATCH/511017/C73533-P66

>  <fragmenstein_runtime>  (534) 
6.887438058853149

>  <fragmenstein_outcome>  (534) 
too moved

>  <fragmenstein_mode>  (534) 
expansion

>  <fragmenstein_error>  (534) 


$$$$
C73534-P13
     RDKit          3D

 39 42  0  0  0  0  0  0  0  0999 V2000
    4.9110    3.4102   24.5108 O   0  0  0  0  0  0  0  0  0  0  0  0
    4.2881    2.6818   23.7389 C   0  0  0  0  0  0  0  0  0  0  0  0
    4.9259    1.6547   22.6974 C   0  0  0  0  0  0  0  0  0  0  0  0
    6.3084    2.0414   21.1799 C   0  0  0  0  0  0  0  0  0  0  0  0
    7.1605    1.1300   19.9334 C   0  0  0  0  0  0  0  0  0  0  0  0
    8.1744    1.9452   18.8736 S   0  0  0  0  0  0  0  0  0  0  0  0
    7.6768    3.4729   19.3975 C   0  0  0  0  0  0  0  0  0  0  0  0
    8.3705    4.6848   18.6666 C   0  0  0  0  0  0  0  0  0  0  0  0
    9.2478    4.5658   17.5334 C   0  0  0  0  0  0  0  0  0  0  0  0
    9.7686    5.7746   17.1439 C   0  0  0  0  0  0  0  0  0  0  0  0
    9.1936    7.0458   18.1266 S   0  0  0  0  0  0  0  0  0  0  0  0
    8.2227    5.9885   19.0614 C   0  0  0  0  0  0  0  0  0  0  0  0
    6.7582    3.5443   20.3712 N   0  0  0  0  0  0  0  0  0  0  0  0
    2.9323    2.6156   23.7751 O   0  0  0  0  0  0  0  0  0  0  0  0
    2.3499    3.3835   24.8321 C   0  0  0  0  0  0  0  0  0  0  0  0
    2.3300    2.6306   26.1826 C   0  0  0  0  0  0  0  0  0  0  0  0
    3.3306    2.1452   26.7040 O   0  0  0  0  0  0  0  0  0  0  0  0
    1.0072    2.3727   26.8043 C   0  0  0  0  0  0  0  0  0  0  0  0
    0.8312    1.1574   27.5052 C   0  0  0  0  0  0  0  0  0  0  0  0
   -0.4532    0.6877   27.7706 C   0  0  0  0  0  0  0  0  0  0  0  0
   -1.5046    1.4505   27.3152 C   0  0  0  0  0  0  0  0  0  0  0  0
   -1.3259    2.6745   26.7225 C   0  0  0  0  0  0  0  0  0  0  0  0
   -0.0808    3.1914   26.4962 C   0  0  0  0  0  0  0  0  0  0  0  0
   -2.4860    3.2358   26.2986 O   0  0  0  0  0  0  0  0  0  0  0  0
   -3.3960    2.1551   26.5475 C   0  0  0  0  0  0  0  0  0  0  0  0
   -2.8058    1.0874   27.3145 O   0  0  0  0  0  0  0  0  0  0  0  0
    4.1432    1.2831   22.0119 H   0  0  0  0  0  0  0  0  0  0  0  0
    5.0030    0.7378   23.3495 H   0  0  0  0  0  0  0  0  0  0  0  0
    7.0182    0.0678   19.7785 H   0  0  0  0  0  0  0  0  0  0  0  0
    9.5090    3.6422   17.0333 H   0  0  0  0  0  0  0  0  0  0  0  0
   10.4617    5.9711   16.3383 H   0  0  0  0  0  0  0  0  0  0  0  0
    7.6200    6.3695   19.8746 H   0  0  0  0  0  0  0  0  0  0  0  0
    1.3415    3.5984   24.4767 H   0  0  0  0  0  0  0  0  0  0  0  0
    2.8336    4.3582   24.9686 H   0  0  0  0  0  0  0  0  0  0  0  0
    1.6909    0.5336   27.7450 H   0  0  0  0  0  0  0  0  0  0  0  0
   -0.6201   -0.2821   28.2258 H   0  0  0  0  0  0  0  0  0  0  0  0
    0.0095    4.1540   26.0076 H   0  0  0  0  0  0  0  0  0  0  0  0
   -3.7132    1.7460   25.5889 H   0  0  0  0  0  0  0  0  0  0  0  0
   -4.2895    2.5269   27.0444 H   0  0  0  0  0  0  0  0  0  0  0  0
  1  2  2  0
  2  3  1  0
  3  4  1  0
  4  5  2  0
  5  6  1  0
  6  7  1  0
  7  8  1  0
  8  9  1  0
  9 10  2  0
 10 11  1  0
 11 12  1  0
  7 13  2  0
  2 14  1  0
 14 15  1  0
 15 16  1  0
 16 17  2  0
 16 18  1  0
 18 19  2  0
 19 20  1  0
 20 21  2  0
 21 22  1  0
 22 23  2  0
 22 24  1  0
 24 25  1  0
 25 26  1  0
 13  4  1  0
 23 18  1  0
 12  8  2  0
 26 21  1  0
  3 27  1  0
  3 28  1  0
  5 29  1  0
  9 30  1  0
 10 31  1  0
 12 32  1  0
 15 33  1  0
 15 34  1  0
 19 35  1  0
 20 36  1  0
 23 37  1  0
 25 38  1  0
 25 39  1  0
M  END
>  <Energy>  (535) 
291.90067964611285

>  <compound_id>  (535) 
73534

>  <target_id>  (535) 
1

>  <reference_id>  (535) 
13

>  <inspiration_ids>  (535) 
[13, 66]

>  <energy_score>  (535) 
122.79343464686258

>  <distance_score>  (535) 
7.153143932662436

>  <path>  (535) 
/opt/xchem-fragalysis-2/maxwin/BulkDock/SCRATCH/511017/C73534-P13/C73534-P13.minimised.mol

>  <scratch_subdir>  (535) 
/opt/xchem-fragalysis-2/maxwin/BulkDock/SCRATCH/511017/C73534-P13

>  <fragmenstein_runtime>  (535) 
7.630375623703003

>  <fragmenstein_outcome>  (535) 
too moved

>  <fragmenstein_mode>  (535) 
expansion

>  <fragmenstein_error>  (535) 


$$$$
C73534-P66
     RDKit          3D

 39 42  0  0  0  0  0  0  0  0999 V2000
    5.9441   -2.1458   24.3383 O   0  0  0  0  0  0  0  0  0  0  0  0
    5.2593   -1.9859   23.3537 C   0  0  0  0  0  0  0  0  0  0  0  0
    5.7218   -1.9852   21.5852 C   0  0  0  0  0  0  0  0  0  0  0  0
    7.0142   -1.1096   20.4827 C   0  0  0  0  0  0  0  0  0  0  0  0
    6.7083    0.1363   20.3324 C   0  0  0  0  0  0  0  0  0  0  0  0
    7.6227    1.1923   19.4715 S   0  0  0  0  0  0  0  0  0  0  0  0
    7.5200   -0.2404   18.4894 C   0  0  0  0  0  0  0  0  0  0  0  0
    6.2508   -0.7779   17.0110 C   0  0  0  0  0  0  0  0  0  0  0  0
    4.6319   -1.5694   17.1041 C   0  0  0  0  0  0  0  0  0  0  0  0
    4.1408   -2.0000   15.8378 C   0  0  0  0  0  0  0  0  0  0  0  0
    5.2584   -1.6665   14.5185 S   0  0  0  0  0  0  0  0  0  0  0  0
    6.6447   -0.9156   15.6351 C   0  0  0  0  0  0  0  0  0  0  0  0
    8.0286   -1.0348   19.5064 N   0  0  0  0  0  0  0  0  0  0  0  0
    3.9595   -1.8933   23.6720 O   0  0  0  0  0  0  0  0  0  0  0  0
    3.6095   -1.7633   25.0645 C   0  0  0  0  0  0  0  0  0  0  0  0
    3.9731   -0.7224   26.1775 C   0  0  0  0  0  0  0  0  0  0  0  0
    5.0843   -0.2515   26.4015 O   0  0  0  0  0  0  0  0  0  0  0  0
    2.8357   -0.1818   27.0070 C   0  0  0  0  0  0  0  0  0  0  0  0
    2.8462    1.2010   27.3017 C   0  0  0  0  0  0  0  0  0  0  0  0
    1.7307    1.8285   27.8691 C   0  0  0  0  0  0  0  0  0  0  0  0
    0.6242    1.0518   28.1271 C   0  0  0  0  0  0  0  0  0  0  0  0
    0.6267   -0.3053   27.9005 C   0  0  0  0  0  0  0  0  0  0  0  0
    1.7258   -0.9599   27.3712 C   0  0  0  0  0  0  0  0  0  0  0  0
   -0.5751   -0.8736   28.1960 O   0  0  0  0  0  0  0  0  0  0  0  0
   -1.3513    0.2905   28.5475 C   0  0  0  0  0  0  0  0  0  0  0  0
   -0.5729    1.5026   28.5884 O   0  0  0  0  0  0  0  0  0  0  0  0
    5.0856   -1.1338   21.6107 H   0  0  0  0  0  0  0  0  0  0  0  0
    5.4450   -2.8398   20.9919 H   0  0  0  0  0  0  0  0  0  0  0  0
    6.0112    0.3415   21.1392 H   0  0  0  0  0  0  0  0  0  0  0  0
    4.1315   -1.7658   18.0155 H   0  0  0  0  0  0  0  0  0  0  0  0
    3.2122   -2.5131   15.6282 H   0  0  0  0  0  0  0  0  0  0  0  0
    7.5711   -0.8076   15.0908 H   0  0  0  0  0  0  0  0  0  0  0  0
    3.6085   -2.7547   25.5161 H   0  0  0  0  0  0  0  0  0  0  0  0
    2.5816   -1.4935   24.9504 H   0  0  0  0  0  0  0  0  0  0  0  0
    3.7172    1.7989   27.0380 H   0  0  0  0  0  0  0  0  0  0  0  0
    1.7251    2.8962   28.0594 H   0  0  0  0  0  0  0  0  0  0  0  0
    1.6844   -2.0244   27.1710 H   0  0  0  0  0  0  0  0  0  0  0  0
   -1.7983    0.1278   29.5347 H   0  0  0  0  0  0  0  0  0  0  0  0
   -2.1566    0.4115   27.8130 H   0  0  0  0  0  0  0  0  0  0  0  0
  1  2  2  0
  2  3  1  0
  3  4  1  0
  4  5  2  0
  5  6  1  0
  6  7  1  0
  7  8  1  0
  8  9  1  0
  9 10  2  0
 10 11  1  0
 11 12  1  0
  7 13  2  0
  2 14  1  0
 14 15  1  0
 15 16  1  0
 16 17  2  0
 16 18  1  0
 18 19  2  0
 19 20  1  0
 20 21  2  0
 21 22  1  0
 22 23  2  0
 22 24  1  0
 24 25  1  0
 25 26  1  0
 13  4  1  0
 23 18  1  0
 12  8  2  0
 26 21  1  0
  3 27  1  0
  3 28  1  0
  5 29  1  0
  9 30  1  0
 10 31  1  0
 12 32  1  0
 15 33  1  0
 15 34  1  0
 19 35  1  0
 20 36  1  0
 23 37  1  0
 25 38  1  0
 25 39  1  0
M  END
>  <Energy>  (536) 
427.38120233509665

>  <compound_id>  (536) 
73534

>  <target_id>  (536) 
1

>  <reference_id>  (536) 
66

>  <inspiration_ids>  (536) 
[13, 66]

>  <energy_score>  (536) 
258.2739573358497

>  <distance_score>  (536) 
6.2301982739980915

>  <path>  (536) 
/opt/xchem-fragalysis-2/maxwin/BulkDock/SCRATCH/511017/C73534-P66/C73534-P66.minimised.mol

>  <scratch_subdir>  (536) 
/opt/xchem-fragalysis-2/maxwin/BulkDock/SCRATCH/511017/C73534-P66

>  <fragmenstein_runtime>  (536) 
6.718583583831787

>  <fragmenstein_outcome>  (536) 
too moved

>  <fragmenstein_mode>  (536) 
expansion

>  <fragmenstein_error>  (536) 


$$$$
C73542-P13
     RDKit          3D

 38 40  0  0  0  0  0  0  0  0999 V2000
    5.0894   -2.1670   24.3603 C   0  0  0  0  0  0  0  0  0  0  0  0
    4.7262   -0.9306   23.4880 C   0  0  0  0  0  0  0  0  0  0  0  0
    5.1244   -0.8300   21.6644 O   0  0  0  0  0  0  0  0  0  0  0  0
    6.5822   -0.9756   20.5507 C   0  0  0  0  0  0  0  0  0  0  0  0
    7.1742   -2.0612   20.6530 O   0  0  0  0  0  0  0  0  0  0  0  0
    7.1031    0.1901   19.3516 C   0  0  0  0  0  0  0  0  0  0  0  0
    8.1738    1.1624   19.4336 C   0  0  0  0  0  0  0  0  0  0  0  0
    8.4261    1.9063   18.2997 C   0  0  0  0  0  0  0  0  0  0  0  0
    7.4521    1.4228   17.0171 S   0  0  0  0  0  0  0  0  0  0  0  0
    6.6256    0.3236   18.0270 C   0  0  0  0  0  0  0  0  0  0  0  0
    4.1182   -0.0389   24.9415 C   0  0  0  0  0  0  0  0  0  0  0  0
    2.9428   -0.0256   25.0790 O   0  0  0  0  0  0  0  0  0  0  0  0
    5.1608    0.4594   25.7936 N   0  0  0  0  0  0  0  0  0  0  0  0
    5.0971    1.2130   27.0314 C   0  0  0  0  0  0  0  0  0  0  0  0
    3.6805    1.2912   27.5908 C   0  0  0  0  0  0  0  0  0  0  0  0
    3.2349    0.3763   28.5724 C   0  0  0  0  0  0  0  0  0  0  0  0
    1.8919    0.3471   28.9825 C   0  0  0  0  0  0  0  0  0  0  0  0
    1.0071    1.2191   28.3839 C   0  0  0  0  0  0  0  0  0  0  0  0
    1.4217    2.1134   27.4307 C   0  0  0  0  0  0  0  0  0  0  0  0
    2.7448    2.1901   27.0332 C   0  0  0  0  0  0  0  0  0  0  0  0
    0.3920    2.8472   26.9254 O   0  0  0  0  0  0  0  0  0  0  0  0
   -0.7264    2.2741   27.6361 C   0  0  0  0  0  0  0  0  0  0  0  0
   -0.3298    1.2974   28.6245 O   0  0  0  0  0  0  0  0  0  0  0  0
    4.2079   -2.6650   24.7662 H   0  0  0  0  0  0  0  0  0  0  0  0
    5.6447   -1.9190   25.2756 H   0  0  0  0  0  0  0  0  0  0  0  0
    5.7189   -2.8588   23.8267 H   0  0  0  0  0  0  0  0  0  0  0  0
    5.2517    0.0048   23.5518 H   0  0  0  0  0  0  0  0  0  0  0  0
    8.7559    1.3497   20.3212 H   0  0  0  0  0  0  0  0  0  0  0  0
    9.1607    2.6913   18.1762 H   0  0  0  0  0  0  0  0  0  0  0  0
    5.8351   -0.2332   17.5438 H   0  0  0  0  0  0  0  0  0  0  0  0
    6.0548    0.2044   25.4029 H   0  0  0  0  0  0  0  0  0  0  0  0
    5.7735    0.7370   27.7488 H   0  0  0  0  0  0  0  0  0  0  0  0
    5.4806    2.2190   26.8312 H   0  0  0  0  0  0  0  0  0  0  0  0
    3.9282   -0.3481   28.9935 H   0  0  0  0  0  0  0  0  0  0  0  0
    1.5477   -0.3696   29.7189 H   0  0  0  0  0  0  0  0  0  0  0  0
    3.0303    2.8742   26.2408 H   0  0  0  0  0  0  0  0  0  0  0  0
   -1.2708    3.0816   28.1379 H   0  0  0  0  0  0  0  0  0  0  0  0
   -1.3958    1.7926   26.9132 H   0  0  0  0  0  0  0  0  0  0  0  0
  1  2  1  0
  2  3  1  0
  3  4  1  0
  4  5  2  0
  4  6  1  0
  6  7  1  0
  7  8  2  0
  8  9  1  0
  9 10  1  0
  2 11  1  0
 11 12  2  0
 11 13  1  0
 13 14  1  0
 14 15  1  0
 15 16  2  0
 16 17  1  0
 17 18  2  0
 18 19  1  0
 19 20  2  0
 19 21  1  0
 21 22  1  0
 22 23  1  0
 10  6  2  0
 20 15  1  0
 23 18  1  0
  1 24  1  0
  1 25  1  0
  1 26  1  0
  2 27  1  0
  7 28  1  0
  8 29  1  0
 10 30  1  0
 13 31  1  0
 14 32  1  0
 14 33  1  0
 16 34  1  0
 17 35  1  0
 20 36  1  0
 22 37  1  0
 22 38  1  0
M  END
>  <Energy>  (537) 
302.87801479741034

>  <compound_id>  (537) 
73542

>  <target_id>  (537) 
1

>  <reference_id>  (537) 
13

>  <inspiration_ids>  (537) 
[13, 66]

>  <energy_score>  (537) 
233.83991455108423

>  <distance_score>  (537) 
6.544270400766712

>  <path>  (537) 
/opt/xchem-fragalysis-2/maxwin/BulkDock/SCRATCH/511017/C73542-P13/C73542-P13.minimised.mol

>  <scratch_subdir>  (537) 
/opt/xchem-fragalysis-2/maxwin/BulkDock/SCRATCH/511017/C73542-P13

>  <fragmenstein_runtime>  (537) 
6.484759330749512

>  <fragmenstein_outcome>  (537) 
too moved

>  <fragmenstein_mode>  (537) 
expansion

>  <fragmenstein_error>  (537) 


$$$$
C73542-P66
     RDKit          3D

 38 40  0  0  0  0  0  0  0  0999 V2000
    4.1776   -0.2878   24.5574 C   0  0  0  0  0  0  0  0  0  0  0  0
    5.0016   -1.6305   23.5147 C   0  0  0  0  0  0  0  0  0  0  0  0
    5.6721   -1.3206   21.7493 O   0  0  0  0  0  0  0  0  0  0  0  0
    6.9998   -0.9062   20.5727 C   0  0  0  0  0  0  0  0  0  0  0  0
    8.0600   -1.5513   20.5711 O   0  0  0  0  0  0  0  0  0  0  0  0
    7.1152    0.3320   19.5316 C   0  0  0  0  0  0  0  0  0  0  0  0
    6.7915    0.5006   18.1212 C   0  0  0  0  0  0  0  0  0  0  0  0
    6.9595    1.8051   17.6495 C   0  0  0  0  0  0  0  0  0  0  0  0
    7.6608    2.9035   18.8187 S   0  0  0  0  0  0  0  0  0  0  0  0
    7.8222    1.5176   19.9182 C   0  0  0  0  0  0  0  0  0  0  0  0
    5.4242   -1.7816   25.2142 C   0  0  0  0  0  0  0  0  0  0  0  0
    6.5478   -1.5771   25.6268 O   0  0  0  0  0  0  0  0  0  0  0  0
    4.1075   -2.0916   25.9867 N   0  0  0  0  0  0  0  0  0  0  0  0
    3.8331   -2.1236   27.4047 C   0  0  0  0  0  0  0  0  0  0  0  0
    2.8092   -1.0422   27.7558 C   0  0  0  0  0  0  0  0  0  0  0  0
    3.2246    0.2866   27.9959 C   0  0  0  0  0  0  0  0  0  0  0  0
    2.2929    1.3168   28.1913 C   0  0  0  0  0  0  0  0  0  0  0  0
    0.9530    0.9983   28.1398 C   0  0  0  0  0  0  0  0  0  0  0  0
    0.5298   -0.2908   27.9315 C   0  0  0  0  0  0  0  0  0  0  0  0
    1.4273   -1.3278   27.7450 C   0  0  0  0  0  0  0  0  0  0  0  0
   -0.8285   -0.3869   27.8945 O   0  0  0  0  0  0  0  0  0  0  0  0
   -1.2063    0.9962   28.0553 C   0  0  0  0  0  0  0  0  0  0  0  0
   -0.0812    1.8743   28.2586 O   0  0  0  0  0  0  0  0  0  0  0  0
    4.6911    0.0898   25.4679 H   0  0  0  0  0  0  0  0  0  0  0  0
    3.1682   -0.5846   24.8782 H   0  0  0  0  0  0  0  0  0  0  0  0
    3.9944    0.6335   24.1042 H   0  0  0  0  0  0  0  0  0  0  0  0
    4.1152   -2.2234   23.3177 H   0  0  0  0  0  0  0  0  0  0  0  0
    6.2996   -0.2609   17.5332 H   0  0  0  0  0  0  0  0  0  0  0  0
    6.6904    2.2391   16.7026 H   0  0  0  0  0  0  0  0  0  0  0  0
    8.3603    1.7380   20.8273 H   0  0  0  0  0  0  0  0  0  0  0  0
    3.3652   -2.2920   25.3212 H   0  0  0  0  0  0  0  0  0  0  0  0
    3.3623   -3.0593   27.6700 H   0  0  0  0  0  0  0  0  0  0  0  0
    4.7584   -1.9915   27.9723 H   0  0  0  0  0  0  0  0  0  0  0  0
    4.2872    0.5256   27.9875 H   0  0  0  0  0  0  0  0  0  0  0  0
    2.6171    2.3392   28.3493 H   0  0  0  0  0  0  0  0  0  0  0  0
    1.0630   -2.3287   27.5415 H   0  0  0  0  0  0  0  0  0  0  0  0
   -1.7490    1.3187   27.1588 H   0  0  0  0  0  0  0  0  0  0  0  0
   -1.8757    1.0774   28.9192 H   0  0  0  0  0  0  0  0  0  0  0  0
  1  2  1  0
  2  3  1  0
  3  4  1  0
  4  5  2  0
  4  6  1  0
  6  7  1  0
  7  8  2  0
  8  9  1  0
  9 10  1  0
  2 11  1  0
 11 12  2  0
 11 13  1  0
 13 14  1  0
 14 15  1  0
 15 16  2  0
 16 17  1  0
 17 18  2  0
 18 19  1  0
 19 20  2  0
 19 21  1  0
 21 22  1  0
 22 23  1  0
 10  6  2  0
 20 15  1  0
 23 18  1  0
  1 24  1  0
  1 25  1  0
  1 26  1  0
  2 27  1  0
  7 28  1  0
  8 29  1  0
 10 30  1  0
 13 31  1  0
 14 32  1  0
 14 33  1  0
 16 34  1  0
 17 35  1  0
 20 36  1  0
 22 37  1  0
 22 38  1  0
M  END
>  <Energy>  (538) 
369.53299515956945

>  <compound_id>  (538) 
73542

>  <target_id>  (538) 
1

>  <reference_id>  (538) 
66

>  <inspiration_ids>  (538) 
[13, 66]

>  <energy_score>  (538) 
300.4948949132438

>  <distance_score>  (538) 
6.247634957468382

>  <path>  (538) 
/opt/xchem-fragalysis-2/maxwin/BulkDock/SCRATCH/511017/C73542-P66/C73542-P66.minimised.mol

>  <scratch_subdir>  (538) 
/opt/xchem-fragalysis-2/maxwin/BulkDock/SCRATCH/511017/C73542-P66

>  <fragmenstein_runtime>  (538) 
7.209459543228149

>  <fragmenstein_outcome>  (538) 
too moved

>  <fragmenstein_mode>  (538) 
expansion

>  <fragmenstein_error>  (538) 


$$$$
C73544-P13
     RDKit          3D

 37 39  0  0  0  0  0  0  0  0999 V2000
    3.7022   -3.7267   27.3885 C   0  0  0  0  0  0  0  0  0  0  0  0
    4.3497   -2.9710   26.2435 C   0  0  0  0  0  0  0  0  0  0  0  0
    5.0052   -3.5746   25.4017 O   0  0  0  0  0  0  0  0  0  0  0  0
    4.1457   -1.4928   26.1212 C   0  0  0  0  0  0  0  0  0  0  0  0
    3.5709   -0.8586   27.2591 C   0  0  0  0  0  0  0  0  0  0  0  0
    3.1725    0.4500   27.1636 C   0  0  0  0  0  0  0  0  0  0  0  0
    3.4463    1.1783   26.0470 C   0  0  0  0  0  0  0  0  0  0  0  0
    4.0706    0.6131   24.9459 C   0  0  0  0  0  0  0  0  0  0  0  0
    4.3150   -0.7818   24.8709 C   0  0  0  0  0  0  0  0  0  0  0  0
    4.8059   -1.4378   23.6156 N   0  0  0  0  0  0  0  0  0  0  0  0
    4.8638   -0.8830   22.0740 C   0  0  0  0  0  0  0  0  0  0  0  0
    4.4332    0.1730   21.5840 O   0  0  0  0  0  0  0  0  0  0  0  0
    5.8731   -1.8910   20.7080 C   0  0  0  0  0  0  0  0  0  0  0  0
    7.0348   -0.5069   19.7863 C   0  0  0  0  0  0  0  0  0  0  0  0
    7.6672    0.3386   18.4045 C   0  0  0  0  0  0  0  0  0  0  0  0
    7.8686    0.1243   16.9381 C   0  0  0  0  0  0  0  0  0  0  0  0
    8.6304    1.0708   16.2898 C   0  0  0  0  0  0  0  0  0  0  0  0
    8.9239    2.3908   17.2974 S   0  0  0  0  0  0  0  0  0  0  0  0
    8.2397    1.5953   18.6450 C   0  0  0  0  0  0  0  0  0  0  0  0
    2.9720    2.4518   26.1342 O   0  0  0  0  0  0  0  0  0  0  0  0
    2.2836    2.4027   27.4010 C   0  0  0  0  0  0  0  0  0  0  0  0
    2.4773    1.1510   28.0962 O   0  0  0  0  0  0  0  0  0  0  0  0
    3.7291   -4.7979   27.1625 H   0  0  0  0  0  0  0  0  0  0  0  0
    4.2605   -3.5560   28.3124 H   0  0  0  0  0  0  0  0  0  0  0  0
    2.6520   -3.4497   27.5052 H   0  0  0  0  0  0  0  0  0  0  0  0
    3.3771   -1.3766   28.1908 H   0  0  0  0  0  0  0  0  0  0  0  0
    4.2688    1.2722   24.1058 H   0  0  0  0  0  0  0  0  0  0  0  0
    5.2965   -2.3251   23.6764 H   0  0  0  0  0  0  0  0  0  0  0  0
    5.2643   -2.5653   20.0746 H   0  0  0  0  0  0  0  0  0  0  0  0
    6.4102   -2.7690   21.1733 H   0  0  0  0  0  0  0  0  0  0  0  0
    7.9930   -0.3853   20.1943 H   0  0  0  0  0  0  0  0  0  0  0  0
    6.4942    0.3732   20.0798 H   0  0  0  0  0  0  0  0  0  0  0  0
    7.4343   -0.6569   16.3245 H   0  0  0  0  0  0  0  0  0  0  0  0
    8.9004    1.0895   15.2424 H   0  0  0  0  0  0  0  0  0  0  0  0
    8.2659    2.1214   19.5843 H   0  0  0  0  0  0  0  0  0  0  0  0
    2.6559    3.2156   28.0343 H   0  0  0  0  0  0  0  0  0  0  0  0
    1.2109    2.5494   27.2282 H   0  0  0  0  0  0  0  0  0  0  0  0
  1  2  1  0
  2  3  2  0
  2  4  1  0
  4  5  2  0
  5  6  1  0
  6  7  2  0
  7  8  1  0
  8  9  2  0
  9 10  1  0
 10 11  1  0
 11 12  2  0
 11 13  1  0
 13 14  1  0
 14 15  1  0
 15 16  1  0
 16 17  2  0
 17 18  1  0
 18 19  1  0
  7 20  1  0
 20 21  1  0
 21 22  1  0
  9  4  1  0
 19 15  2  0
 22  6  1  0
  1 23  1  0
  1 24  1  0
  1 25  1  0
  5 26  1  0
  8 27  1  0
 10 28  1  0
 13 29  1  0
 13 30  1  0
 14 31  1  0
 14 32  1  0
 16 33  1  0
 17 34  1  0
 19 35  1  0
 21 36  1  0
 21 37  1  0
M  END
>  <Energy>  (539) 
251.79725568598562

>  <compound_id>  (539) 
73544

>  <target_id>  (539) 
1

>  <reference_id>  (539) 
13

>  <inspiration_ids>  (539) 
[13, 66]

>  <energy_score>  (539) 
160.73422723906236

>  <distance_score>  (539) 
5.669363355748178

>  <path>  (539) 
/opt/xchem-fragalysis-2/maxwin/BulkDock/SCRATCH/511017/C73544-P13/C73544-P13.minimised.mol

>  <scratch_subdir>  (539) 
/opt/xchem-fragalysis-2/maxwin/BulkDock/SCRATCH/511017/C73544-P13

>  <fragmenstein_runtime>  (539) 
7.111729621887207

>  <fragmenstein_outcome>  (539) 
too moved

>  <fragmenstein_mode>  (539) 
expansion

>  <fragmenstein_error>  (539) 


$$$$
C73544-P66
     RDKit          3D

 37 39  0  0  0  0  0  0  0  0999 V2000
    3.3191   -2.1741   28.6270 C   0  0  0  0  0  0  0  0  0  0  0  0
    4.2175   -1.0614   28.1345 C   0  0  0  0  0  0  0  0  0  0  0  0
    5.4421   -1.1866   28.1361 O   0  0  0  0  0  0  0  0  0  0  0  0
    3.6010    0.2374   27.7190 C   0  0  0  0  0  0  0  0  0  0  0  0
    2.1910    0.3486   27.7571 C   0  0  0  0  0  0  0  0  0  0  0  0
    1.6220    1.5733   27.5034 C   0  0  0  0  0  0  0  0  0  0  0  0
    2.3947    2.6736   27.2418 C   0  0  0  0  0  0  0  0  0  0  0  0
    3.7798    2.6046   27.1793 C   0  0  0  0  0  0  0  0  0  0  0  0
    4.4152    1.3623   27.3669 C   0  0  0  0  0  0  0  0  0  0  0  0
    5.8073    1.2217   27.0985 N   0  0  0  0  0  0  0  0  0  0  0  0
    6.8266    2.2183   26.7762 C   0  0  0  0  0  0  0  0  0  0  0  0
    6.7635    3.4178   26.7346 O   0  0  0  0  0  0  0  0  0  0  0  0
    8.1720    1.5349   26.3220 C   0  0  0  0  0  0  0  0  0  0  0  0
    9.1227    2.5305   25.5779 C   0  0  0  0  0  0  0  0  0  0  0  0
   10.0339    2.0247   24.4711 C   0  0  0  0  0  0  0  0  0  0  0  0
    9.9990    2.5307   23.1175 C   0  0  0  0  0  0  0  0  0  0  0  0
   11.0018    2.0273   22.3205 C   0  0  0  0  0  0  0  0  0  0  0  0
   12.0149    0.9622   23.1823 S   0  0  0  0  0  0  0  0  0  0  0  0
   11.0731    1.1217   24.6063 C   0  0  0  0  0  0  0  0  0  0  0  0
    1.6379    3.7857   27.0294 O   0  0  0  0  0  0  0  0  0  0  0  0
    0.3040    3.2541   27.1773 C   0  0  0  0  0  0  0  0  0  0  0  0
    0.2886    1.8423   27.4824 O   0  0  0  0  0  0  0  0  0  0  0  0
    3.9441   -2.9633   29.0542 H   0  0  0  0  0  0  0  0  0  0  0  0
    2.6665   -1.8207   29.4296 H   0  0  0  0  0  0  0  0  0  0  0  0
    2.7401   -2.5876   27.7979 H   0  0  0  0  0  0  0  0  0  0  0  0
    1.5374   -0.4894   27.9676 H   0  0  0  0  0  0  0  0  0  0  0  0
    4.3390    3.5014   26.9323 H   0  0  0  0  0  0  0  0  0  0  0  0
    6.2393    0.2943   27.1164 H   0  0  0  0  0  0  0  0  0  0  0  0
    7.9437    0.6782   25.6841 H   0  0  0  0  0  0  0  0  0  0  0  0
    8.6717    1.1548   27.2203 H   0  0  0  0  0  0  0  0  0  0  0  0
    8.5416    3.3594   25.1550 H   0  0  0  0  0  0  0  0  0  0  0  0
    9.7632    3.0003   26.3376 H   0  0  0  0  0  0  0  0  0  0  0  0
    9.2800    3.2590   22.7598 H   0  0  0  0  0  0  0  0  0  0  0  0
   11.2019    2.2748   21.2883 H   0  0  0  0  0  0  0  0  0  0  0  0
   11.3665    0.5791   25.4945 H   0  0  0  0  0  0  0  0  0  0  0  0
   -0.2028    3.7938   27.9856 H   0  0  0  0  0  0  0  0  0  0  0  0
   -0.2454    3.4170   26.2430 H   0  0  0  0  0  0  0  0  0  0  0  0
  1  2  1  0
  2  3  2  0
  2  4  1  0
  4  5  2  0
  5  6  1  0
  6  7  2  0
  7  8  1  0
  8  9  2  0
  9 10  1  0
 10 11  1  0
 11 12  2  0
 11 13  1  0
 13 14  1  0
 14 15  1  0
 15 16  1  0
 16 17  2  0
 17 18  1  0
 18 19  1  0
  7 20  1  0
 20 21  1  0
 21 22  1  0
  9  4  1  0
 19 15  2  0
 22  6  1  0
  1 23  1  0
  1 24  1  0
  1 25  1  0
  5 26  1  0
  8 27  1  0
 10 28  1  0
 13 29  1  0
 13 30  1  0
 14 31  1  0
 14 32  1  0
 16 33  1  0
 17 34  1  0
 19 35  1  0
 21 36  1  0
 21 37  1  0
M  END
>  <Energy>  (540) 
34.371586571243043

>  <compound_id>  (540) 
73544

>  <target_id>  (540) 
1

>  <reference_id>  (540) 
66

>  <inspiration_ids>  (540) 
[13, 66]

>  <energy_score>  (540) 
-56.691441875676674

>  <distance_score>  (540) 
6.394615193203518

>  <path>  (540) 
/opt/xchem-fragalysis-2/maxwin/BulkDock/SCRATCH/511017/C73544-P66/C73544-P66.minimised.mol

>  <scratch_subdir>  (540) 
/opt/xchem-fragalysis-2/maxwin/BulkDock/SCRATCH/511017/C73544-P66

>  <fragmenstein_runtime>  (540) 
14.314805746078491

>  <fragmenstein_outcome>  (540) 
too moved

>  <fragmenstein_mode>  (540) 
expansion

>  <fragmenstein_error>  (540) 


$$$$
C73545-P13
     RDKit          3D

 43 45  0  0  0  0  0  0  0  0999 V2000
    2.4882   -1.0874   28.1752 C   0  0  0  0  0  0  0  0  0  0  0  0
    2.9440   -0.0790   27.1417 C   0  0  0  0  0  0  0  0  0  0  0  0
    3.8891   -0.3272   26.3928 O   0  0  0  0  0  0  0  0  0  0  0  0
    2.2117    1.2253   27.0075 C   0  0  0  0  0  0  0  0  0  0  0  0
    1.0657    1.4268   27.8020 C   0  0  0  0  0  0  0  0  0  0  0  0
    0.2874    2.5321   27.5481 C   0  0  0  0  0  0  0  0  0  0  0  0
    0.6435    3.4672   26.6116 C   0  0  0  0  0  0  0  0  0  0  0  0
    1.7890    3.3464   25.8496 C   0  0  0  0  0  0  0  0  0  0  0  0
    2.5614    2.1833   25.9893 C   0  0  0  0  0  0  0  0  0  0  0  0
    3.4544    1.8383   24.9484 N   0  0  0  0  0  0  0  0  0  0  0  0
    3.9283    2.6113   23.7875 C   0  0  0  0  0  0  0  0  0  0  0  0
    3.7365    3.7549   23.4803 O   0  0  0  0  0  0  0  0  0  0  0  0
    4.7545    1.5867   22.7862 C   0  0  0  0  0  0  0  0  0  0  0  0
    6.0291    2.0477   21.3830 O   0  0  0  0  0  0  0  0  0  0  0  0
    7.2734    1.7718   20.0918 C   0  0  0  0  0  0  0  0  0  0  0  0
    7.5614    0.6673   19.6110 O   0  0  0  0  0  0  0  0  0  0  0  0
    7.9078    3.0890   19.5196 C   0  0  0  0  0  0  0  0  0  0  0  0
    7.9983    3.2610   17.9809 C   0  0  0  0  0  0  0  0  0  0  0  0
    8.8362    2.3671   17.0694 C   0  0  0  0  0  0  0  0  0  0  0  0
    8.6320    0.9735   16.7953 C   0  0  0  0  0  0  0  0  0  0  0  0
    9.4247    0.4657   15.7886 C   0  0  0  0  0  0  0  0  0  0  0  0
   10.4599    1.6579   15.1515 S   0  0  0  0  0  0  0  0  0  0  0  0
    9.8102    2.8449   16.2034 C   0  0  0  0  0  0  0  0  0  0  0  0
   -0.2944    4.4426   26.4774 O   0  0  0  0  0  0  0  0  0  0  0  0
   -1.3081    3.9871   27.3999 C   0  0  0  0  0  0  0  0  0  0  0  0
   -0.9136    2.7994   28.1238 O   0  0  0  0  0  0  0  0  0  0  0  0
    2.5573   -0.6591   29.1785 H   0  0  0  0  0  0  0  0  0  0  0  0
    3.1498   -1.9588   28.1366 H   0  0  0  0  0  0  0  0  0  0  0  0
    1.4720   -1.4261   27.9596 H   0  0  0  0  0  0  0  0  0  0  0  0
    0.7245    0.7186   28.5470 H   0  0  0  0  0  0  0  0  0  0  0  0
    1.9869    4.0863   25.0807 H   0  0  0  0  0  0  0  0  0  0  0  0
    3.8834    0.9101   24.9313 H   0  0  0  0  0  0  0  0  0  0  0  0
    4.9934    0.6662   23.3635 H   0  0  0  0  0  0  0  0  0  0  0  0
    4.0408    1.2943   22.0174 H   0  0  0  0  0  0  0  0  0  0  0  0
    7.3369    3.9413   19.9018 H   0  0  0  0  0  0  0  0  0  0  0  0
    8.9257    3.1576   19.9241 H   0  0  0  0  0  0  0  0  0  0  0  0
    6.9875    3.3066   17.5678 H   0  0  0  0  0  0  0  0  0  0  0  0
    8.3812    4.2828   17.8341 H   0  0  0  0  0  0  0  0  0  0  0  0
    7.8626    0.3838   17.2675 H   0  0  0  0  0  0  0  0  0  0  0  0
    9.4131   -0.5305   15.3660 H   0  0  0  0  0  0  0  0  0  0  0  0
   10.1729    3.8608   16.1311 H   0  0  0  0  0  0  0  0  0  0  0  0
   -1.5093    4.7912   28.1124 H   0  0  0  0  0  0  0  0  0  0  0  0
   -2.2252    3.7698   26.8401 H   0  0  0  0  0  0  0  0  0  0  0  0
  1  2  1  0
  2  3  2  0
  2  4  1  0
  4  5  2  0
  5  6  1  0
  6  7  2  0
  7  8  1  0
  8  9  2  0
  9 10  1  0
 10 11  1  0
 11 12  2  0
 11 13  1  0
 13 14  1  0
 14 15  1  0
 15 16  2  0
 15 17  1  0
 17 18  1  0
 18 19  1  0
 19 20  1  0
 20 21  2  0
 21 22  1  0
 22 23  1  0
  7 24  1  0
 24 25  1  0
 25 26  1  0
  9  4  1  0
 23 19  2  0
 26  6  1  0
  1 27  1  0
  1 28  1  0
  1 29  1  0
  5 30  1  0
  8 31  1  0
 10 32  1  0
 13 33  1  0
 13 34  1  0
 17 35  1  0
 17 36  1  0
 18 37  1  0
 18 38  1  0
 20 39  1  0
 21 40  1  0
 23 41  1  0
 25 42  1  0
 25 43  1  0
M  END
>  <Energy>  (541) 
226.84245767067296

>  <compound_id>  (541) 
73545

>  <target_id>  (541) 
1

>  <reference_id>  (541) 
13

>  <inspiration_ids>  (541) 
[13, 66]

>  <energy_score>  (541) 
118.2837927346335

>  <distance_score>  (541) 
4.369549708685056

>  <path>  (541) 
/opt/xchem-fragalysis-2/maxwin/BulkDock/SCRATCH/511017/C73545-P13/C73545-P13.minimised.mol

>  <scratch_subdir>  (541) 
/opt/xchem-fragalysis-2/maxwin/BulkDock/SCRATCH/511017/C73545-P13

>  <fragmenstein_runtime>  (541) 
7.020502328872681

>  <fragmenstein_outcome>  (541) 
too moved

>  <fragmenstein_mode>  (541) 
expansion

>  <fragmenstein_error>  (541) 


$$$$
C73545-P66
     RDKit          3D

 43 45  0  0  0  0  0  0  0  0999 V2000
    0.6631   -3.8557   28.5994 C   0  0  0  0  0  0  0  0  0  0  0  0
    2.0279   -3.2836   28.2570 C   0  0  0  0  0  0  0  0  0  0  0  0
    2.9524   -3.4085   29.0585 O   0  0  0  0  0  0  0  0  0  0  0  0
    2.1748   -2.4392   26.9969 C   0  0  0  0  0  0  0  0  0  0  0  0
    1.2824   -1.3598   27.2968 C   0  0  0  0  0  0  0  0  0  0  0  0
    1.7963   -0.1103   27.4845 C   0  0  0  0  0  0  0  0  0  0  0  0
    3.1391    0.0891   27.3911 C   0  0  0  0  0  0  0  0  0  0  0  0
    3.9963   -0.9232   26.9645 C   0  0  0  0  0  0  0  0  0  0  0  0
    3.4865   -2.1727   26.4860 C   0  0  0  0  0  0  0  0  0  0  0  0
    4.0121   -2.3061   25.0734 N   0  0  0  0  0  0  0  0  0  0  0  0
    4.5088   -1.2754   24.0958 C   0  0  0  0  0  0  0  0  0  0  0  0
    4.4806   -0.1193   24.2812 O   0  0  0  0  0  0  0  0  0  0  0  0
    5.4241   -1.6651   22.3102 C   0  0  0  0  0  0  0  0  0  0  0  0
    6.5710   -1.0287   20.8703 O   0  0  0  0  0  0  0  0  0  0  0  0
    7.4477   -0.5069   19.5335 C   0  0  0  0  0  0  0  0  0  0  0  0
    8.6083   -0.2064   19.8774 O   0  0  0  0  0  0  0  0  0  0  0  0
    7.2683   -0.3516   17.5952 C   0  0  0  0  0  0  0  0  0  0  0  0
    7.8206   -1.2391   15.8394 C   0  0  0  0  0  0  0  0  0  0  0  0
    9.4166   -1.3921   15.0409 C   0  0  0  0  0  0  0  0  0  0  0  0
   10.4199   -2.4529   15.0852 C   0  0  0  0  0  0  0  0  0  0  0  0
   11.6762   -2.0734   14.6528 C   0  0  0  0  0  0  0  0  0  0  0  0
   11.7199   -0.4760   14.0837 S   0  0  0  0  0  0  0  0  0  0  0  0
   10.0174   -0.3251   14.2996 C   0  0  0  0  0  0  0  0  0  0  0  0
    3.4719    1.3827   27.6561 O   0  0  0  0  0  0  0  0  0  0  0  0
    2.1660    1.9716   27.8362 C   0  0  0  0  0  0  0  0  0  0  0  0
    1.0977    1.0020   27.8200 O   0  0  0  0  0  0  0  0  0  0  0  0
    0.7922   -4.7214   29.2563 H   0  0  0  0  0  0  0  0  0  0  0  0
    0.1421   -4.1948   27.7051 H   0  0  0  0  0  0  0  0  0  0  0  0
    0.0625   -3.1167   29.1354 H   0  0  0  0  0  0  0  0  0  0  0  0
    0.2385   -1.5248   27.5409 H   0  0  0  0  0  0  0  0  0  0  0  0
    5.0258   -0.6441   26.7412 H   0  0  0  0  0  0  0  0  0  0  0  0
    4.0729   -3.2003   24.6398 H   0  0  0  0  0  0  0  0  0  0  0  0
    5.4558   -2.6603   21.9542 H   0  0  0  0  0  0  0  0  0  0  0  0
    4.7199   -1.0130   21.8563 H   0  0  0  0  0  0  0  0  0  0  0  0
    6.2422   -0.7352   17.5435 H   0  0  0  0  0  0  0  0  0  0  0  0
    7.6474    0.6495   17.4388 H   0  0  0  0  0  0  0  0  0  0  0  0
    7.1919   -0.8782   15.0517 H   0  0  0  0  0  0  0  0  0  0  0  0
    7.5959   -2.2918   15.7079 H   0  0  0  0  0  0  0  0  0  0  0  0
   10.3132   -3.4752   15.4036 H   0  0  0  0  0  0  0  0  0  0  0  0
   12.5716   -2.6741   14.6447 H   0  0  0  0  0  0  0  0  0  0  0  0
    9.5521    0.5946   13.9871 H   0  0  0  0  0  0  0  0  0  0  0  0
    2.1490    2.4937   28.7995 H   0  0  0  0  0  0  0  0  0  0  0  0
    1.9941    2.7016   27.0361 H   0  0  0  0  0  0  0  0  0  0  0  0
  1  2  1  0
  2  3  2  0
  2  4  1  0
  4  5  2  0
  5  6  1  0
  6  7  2  0
  7  8  1  0
  8  9  2  0
  9 10  1  0
 10 11  1  0
 11 12  2  0
 11 13  1  0
 13 14  1  0
 14 15  1  0
 15 16  2  0
 15 17  1  0
 17 18  1  0
 18 19  1  0
 19 20  1  0
 20 21  2  0
 21 22  1  0
 22 23  1  0
  7 24  1  0
 24 25  1  0
 25 26  1  0
  9  4  1  0
 23 19  2  0
 26  6  1  0
  1 27  1  0
  1 28  1  0
  1 29  1  0
  5 30  1  0
  8 31  1  0
 10 32  1  0
 13 33  1  0
 13 34  1  0
 17 35  1  0
 17 36  1  0
 18 37  1  0
 18 38  1  0
 20 39  1  0
 21 40  1  0
 23 41  1  0
 25 42  1  0
 25 43  1  0
M  END
>  <Energy>  (542) 
587.90613525249751

>  <compound_id>  (542) 
73545

>  <target_id>  (542) 
1

>  <reference_id>  (542) 
66

>  <inspiration_ids>  (542) 
[13, 66]

>  <energy_score>  (542) 
479.3474703164619

>  <distance_score>  (542) 
3.88560415585912

>  <path>  (542) 
/opt/xchem-fragalysis-2/maxwin/BulkDock/SCRATCH/511017/C73545-P66/C73545-P66.minimised.mol

>  <scratch_subdir>  (542) 
/opt/xchem-fragalysis-2/maxwin/BulkDock/SCRATCH/511017/C73545-P66

>  <fragmenstein_runtime>  (542) 
8.979909658432007

>  <fragmenstein_outcome>  (542) 
too moved

>  <fragmenstein_mode>  (542) 
expansion

>  <fragmenstein_error>  (542) 


$$$$
C73546-P13
     RDKit          3D

 41 43  0  0  0  0  0  0  0  0999 V2000
    1.7812   -2.2820   28.6287 C   0  0  0  0  0  0  0  0  0  0  0  0
    2.6032   -1.3644   27.7506 C   0  0  0  0  0  0  0  0  0  0  0  0
    3.5969   -1.7869   27.1578 O   0  0  0  0  0  0  0  0  0  0  0  0
    2.1862    0.0676   27.5882 C   0  0  0  0  0  0  0  0  0  0  0  0
    1.1051    0.5433   28.3538 C   0  0  0  0  0  0  0  0  0  0  0  0
    0.6464    1.8179   28.1098 C   0  0  0  0  0  0  0  0  0  0  0  0
    1.2540    2.6462   27.2039 C   0  0  0  0  0  0  0  0  0  0  0  0
    2.3447    2.2407   26.4645 C   0  0  0  0  0  0  0  0  0  0  0  0
    2.7884    0.9144   26.6006 C   0  0  0  0  0  0  0  0  0  0  0  0
    3.6133    0.3668   25.5959 N   0  0  0  0  0  0  0  0  0  0  0  0
    4.1327    0.9533   24.3479 C   0  0  0  0  0  0  0  0  0  0  0  0
    4.0493    2.0720   23.9133 O   0  0  0  0  0  0  0  0  0  0  0  0
    4.8703   -0.3535   23.4161 C   0  0  0  0  0  0  0  0  0  0  0  0
    5.1434   -0.5807   21.4248 C   0  0  0  0  0  0  0  0  0  0  0  0
    6.4177    0.3997   20.2209 N   0  0  0  0  0  0  0  0  0  0  0  0
    6.7601    0.2104   18.7810 C   0  0  0  0  0  0  0  0  0  0  0  0
    6.3581   -0.5944   17.9770 O   0  0  0  0  0  0  0  0  0  0  0  0
    7.8767    1.1185   18.2689 C   0  0  0  0  0  0  0  0  0  0  0  0
    8.6064    0.8271   17.0358 C   0  0  0  0  0  0  0  0  0  0  0  0
    9.2772    1.9102   16.5251 C   0  0  0  0  0  0  0  0  0  0  0  0
    8.9779    3.3069   17.4549 S   0  0  0  0  0  0  0  0  0  0  0  0
    8.1558    2.4115   18.6664 C   0  0  0  0  0  0  0  0  0  0  0  0
    0.6148    3.8397   27.0835 O   0  0  0  0  0  0  0  0  0  0  0  0
   -0.4756    3.6681   28.0131 C   0  0  0  0  0  0  0  0  0  0  0  0
   -0.4455    2.3858   28.6821 O   0  0  0  0  0  0  0  0  0  0  0  0
    0.7346   -2.2825   28.3135 H   0  0  0  0  0  0  0  0  0  0  0  0
    1.8777   -1.9869   29.6764 H   0  0  0  0  0  0  0  0  0  0  0  0
    2.1579   -3.3047   28.5251 H   0  0  0  0  0  0  0  0  0  0  0  0
    0.5836   -0.0618   29.0848 H   0  0  0  0  0  0  0  0  0  0  0  0
    2.7558    2.9149   25.7203 H   0  0  0  0  0  0  0  0  0  0  0  0
    3.9454   -0.5933   25.6776 H   0  0  0  0  0  0  0  0  0  0  0  0
    5.6121   -0.0120   24.1351 H   0  0  0  0  0  0  0  0  0  0  0  0
    4.4610   -1.3239   23.7518 H   0  0  0  0  0  0  0  0  0  0  0  0
    5.3535   -1.6199   21.0903 H   0  0  0  0  0  0  0  0  0  0  0  0
    4.3898    0.2270   21.3338 H   0  0  0  0  0  0  0  0  0  0  0  0
    6.8797    1.2334   20.5610 H   0  0  0  0  0  0  0  0  0  0  0  0
    8.5115   -0.0968   16.4804 H   0  0  0  0  0  0  0  0  0  0  0  0
    9.8376    1.9761   15.6034 H   0  0  0  0  0  0  0  0  0  0  0  0
    7.7470    2.9764   19.4859 H   0  0  0  0  0  0  0  0  0  0  0  0
   -1.4247    3.7646   27.4738 H   0  0  0  0  0  0  0  0  0  0  0  0
   -0.4076    4.4582   28.7671 H   0  0  0  0  0  0  0  0  0  0  0  0
  1  2  1  0
  2  3  2  0
  2  4  1  0
  4  5  2  0
  5  6  1  0
  6  7  2  0
  7  8  1  0
  8  9  2  0
  9 10  1  0
 10 11  1  0
 11 12  2  0
 11 13  1  0
 13 14  1  0
 14 15  1  0
 15 16  1  0
 16 17  2  0
 16 18  1  0
 18 19  1  0
 19 20  2  0
 20 21  1  0
 21 22  1  0
  7 23  1  0
 23 24  1  0
 24 25  1  0
  9  4  1  0
 22 18  2  0
 25  6  1  0
  1 26  1  0
  1 27  1  0
  1 28  1  0
  5 29  1  0
  8 30  1  0
 10 31  1  0
 13 32  1  0
 13 33  1  0
 14 34  1  0
 14 35  1  0
 15 36  1  0
 19 37  1  0
 20 38  1  0
 22 39  1  0
 24 40  1  0
 24 41  1  0
M  END
>  <Energy>  (543) 
230.07318003091902

>  <compound_id>  (543) 
73546

>  <target_id>  (543) 
1

>  <reference_id>  (543) 
13

>  <inspiration_ids>  (543) 
[13, 66]

>  <energy_score>  (543) 
154.1985683228619

>  <distance_score>  (543) 
4.754138155642066

>  <path>  (543) 
/opt/xchem-fragalysis-2/maxwin/BulkDock/SCRATCH/511017/C73546-P13/C73546-P13.minimised.mol

>  <scratch_subdir>  (543) 
/opt/xchem-fragalysis-2/maxwin/BulkDock/SCRATCH/511017/C73546-P13

>  <fragmenstein_runtime>  (543) 
9.63261604309082

>  <fragmenstein_outcome>  (543) 
too moved

>  <fragmenstein_mode>  (543) 
expansion

>  <fragmenstein_error>  (543) 


$$$$
C73546-P66
     RDKit          3D

 41 43  0  0  0  0  0  0  0  0999 V2000
    3.5517   -1.9636   27.7152 C   0  0  0  0  0  0  0  0  0  0  0  0
    4.1240   -0.8326   26.8977 C   0  0  0  0  0  0  0  0  0  0  0  0
    5.3215   -0.7168   26.6542 O   0  0  0  0  0  0  0  0  0  0  0  0
    3.2053    0.2279   26.4542 C   0  0  0  0  0  0  0  0  0  0  0  0
    2.2839    0.7110   27.4231 C   0  0  0  0  0  0  0  0  0  0  0  0
    1.4357    1.7432   27.0883 C   0  0  0  0  0  0  0  0  0  0  0  0
    1.4970    2.3369   25.8595 C   0  0  0  0  0  0  0  0  0  0  0  0
    2.3804    1.8872   24.8901 C   0  0  0  0  0  0  0  0  0  0  0  0
    3.2503    0.7709   25.1438 C   0  0  0  0  0  0  0  0  0  0  0  0
    4.1962    0.2773   24.0571 N   0  0  0  0  0  0  0  0  0  0  0  0
    4.2443    0.6350   22.1455 C   0  0  0  0  0  0  0  0  0  0  0  0
    3.3683    1.2871   21.6337 O   0  0  0  0  0  0  0  0  0  0  0  0
    5.8805   -0.0250   21.0890 C   0  0  0  0  0  0  0  0  0  0  0  0
    6.9550   -0.1715   19.3148 C   0  0  0  0  0  0  0  0  0  0  0  0
    8.5810   -0.6895   18.4784 N   0  0  0  0  0  0  0  0  0  0  0  0
    8.9520   -1.4570   16.6888 C   0  0  0  0  0  0  0  0  0  0  0  0
    8.0921   -1.6211   15.8053 O   0  0  0  0  0  0  0  0  0  0  0  0
   10.5198   -2.0135   16.1051 C   0  0  0  0  0  0  0  0  0  0  0  0
   10.5325   -2.4583   14.7661 C   0  0  0  0  0  0  0  0  0  0  0  0
   11.7550   -2.5455   14.1519 C   0  0  0  0  0  0  0  0  0  0  0  0
   12.9784   -2.3358   15.2966 S   0  0  0  0  0  0  0  0  0  0  0  0
   11.7748   -2.4763   16.5167 C   0  0  0  0  0  0  0  0  0  0  0  0
    0.5541    3.3033   25.7034 O   0  0  0  0  0  0  0  0  0  0  0  0
   -0.0919    3.2721   26.9936 C   0  0  0  0  0  0  0  0  0  0  0  0
    0.4556    2.2640   27.8734 O   0  0  0  0  0  0  0  0  0  0  0  0
    2.7695   -2.4773   27.1521 H   0  0  0  0  0  0  0  0  0  0  0  0
    3.1717   -1.6142   28.6767 H   0  0  0  0  0  0  0  0  0  0  0  0
    4.3598   -2.6630   27.9345 H   0  0  0  0  0  0  0  0  0  0  0  0
    2.2346    0.3050   28.4263 H   0  0  0  0  0  0  0  0  0  0  0  0
    2.3683    2.3546   23.9076 H   0  0  0  0  0  0  0  0  0  0  0  0
    4.9132   -0.3275   24.2851 H   0  0  0  0  0  0  0  0  0  0  0  0
    6.3593    0.8959   21.4306 H   0  0  0  0  0  0  0  0  0  0  0  0
    5.9656   -1.0497   21.4807 H   0  0  0  0  0  0  0  0  0  0  0  0
    7.3134    0.8678   19.3465 H   0  0  0  0  0  0  0  0  0  0  0  0
    7.5162   -0.7440   20.0531 H   0  0  0  0  0  0  0  0  0  0  0  0
    9.4596   -0.5687   19.0072 H   0  0  0  0  0  0  0  0  0  0  0  0
    9.5827   -2.6206   14.3128 H   0  0  0  0  0  0  0  0  0  0  0  0
   11.9709   -2.7357   13.1155 H   0  0  0  0  0  0  0  0  0  0  0  0
   12.2138   -2.7312   17.4555 H   0  0  0  0  0  0  0  0  0  0  0  0
   -1.1588    3.0678   26.8480 H   0  0  0  0  0  0  0  0  0  0  0  0
    0.0202    4.2532   27.4694 H   0  0  0  0  0  0  0  0  0  0  0  0
  1  2  1  0
  2  3  2  0
  2  4  1  0
  4  5  2  0
  5  6  1  0
  6  7  2  0
  7  8  1  0
  8  9  2  0
  9 10  1  0
 10 11  1  0
 11 12  2  0
 11 13  1  0
 13 14  1  0
 14 15  1  0
 15 16  1  0
 16 17  2  0
 16 18  1  0
 18 19  1  0
 19 20  2  0
 20 21  1  0
 21 22  1  0
  7 23  1  0
 23 24  1  0
 24 25  1  0
  9  4  1  0
 22 18  2  0
 25  6  1  0
  1 26  1  0
  1 27  1  0
  1 28  1  0
  5 29  1  0
  8 30  1  0
 10 31  1  0
 13 32  1  0
 13 33  1  0
 14 34  1  0
 14 35  1  0
 15 36  1  0
 19 37  1  0
 20 38  1  0
 22 39  1  0
 24 40  1  0
 24 41  1  0
M  END
>  <Energy>  (544) 
565.14390184959223

>  <compound_id>  (544) 
73546

>  <target_id>  (544) 
1

>  <reference_id>  (544) 
66

>  <inspiration_ids>  (544) 
[13, 66]

>  <energy_score>  (544) 
489.2692901415429

>  <distance_score>  (544) 
3.496052666782278

>  <path>  (544) 
/opt/xchem-fragalysis-2/maxwin/BulkDock/SCRATCH/511017/C73546-P66/C73546-P66.minimised.mol

>  <scratch_subdir>  (544) 
/opt/xchem-fragalysis-2/maxwin/BulkDock/SCRATCH/511017/C73546-P66

>  <fragmenstein_runtime>  (544) 
6.551563024520874

>  <fragmenstein_outcome>  (544) 
too moved

>  <fragmenstein_mode>  (544) 
expansion

>  <fragmenstein_error>  (544) 


$$$$
C73547-P13
     RDKit          3D

 40 42  0  0  0  0  0  0  0  0999 V2000
    0.8710   -3.5819   29.0843 C   0  0  0  0  0  0  0  0  0  0  0  0
    1.8417   -2.4394   29.2167 C   0  0  0  0  0  0  0  0  0  0  0  0
    2.7724   -2.4665   30.0210 O   0  0  0  0  0  0  0  0  0  0  0  0
    1.5923   -1.2071   28.4319 C   0  0  0  0  0  0  0  0  0  0  0  0
    0.2860   -0.6825   28.5193 C   0  0  0  0  0  0  0  0  0  0  0  0
    0.0635    0.5804   28.0277 C   0  0  0  0  0  0  0  0  0  0  0  0
    1.0825    1.3288   27.4958 C   0  0  0  0  0  0  0  0  0  0  0  0
    2.3769    0.8405   27.3877 C   0  0  0  0  0  0  0  0  0  0  0  0
    2.6428   -0.4729   27.8154 C   0  0  0  0  0  0  0  0  0  0  0  0
    3.9319   -0.9807   27.5384 N   0  0  0  0  0  0  0  0  0  0  0  0
    4.4064   -2.3415   27.3968 C   0  0  0  0  0  0  0  0  0  0  0  0
    3.8095   -3.3856   27.4005 O   0  0  0  0  0  0  0  0  0  0  0  0
    5.9603   -2.3840   27.2633 C   0  0  0  0  0  0  0  0  0  0  0  0
    6.5883   -1.1527   26.8916 O   0  0  0  0  0  0  0  0  0  0  0  0
    7.9138   -1.0611   26.5609 C   0  0  0  0  0  0  0  0  0  0  0  0
    8.3117   -0.0067   26.0692 O   0  0  0  0  0  0  0  0  0  0  0  0
    8.8539   -2.2146   26.9149 C   0  0  0  0  0  0  0  0  0  0  0  0
   10.1147   -2.3657   26.0539 C   0  0  0  0  0  0  0  0  0  0  0  0
   11.0196   -1.3277   25.6477 C   0  0  0  0  0  0  0  0  0  0  0  0
   12.0965   -1.7975   24.9238 C   0  0  0  0  0  0  0  0  0  0  0  0
   12.0193   -3.4801   24.6678 S   0  0  0  0  0  0  0  0  0  0  0  0
   10.5861   -3.5883   25.5937 C   0  0  0  0  0  0  0  0  0  0  0  0
    0.6487    2.5473   27.0685 O   0  0  0  0  0  0  0  0  0  0  0  0
   -0.7597    2.4771   27.3973 C   0  0  0  0  0  0  0  0  0  0  0  0
   -1.1276    1.2338   28.0296 O   0  0  0  0  0  0  0  0  0  0  0  0
    0.2791   -3.4965   28.1712 H   0  0  0  0  0  0  0  0  0  0  0  0
    0.2025   -3.5953   29.9489 H   0  0  0  0  0  0  0  0  0  0  0  0
    1.4348   -4.5175   29.0371 H   0  0  0  0  0  0  0  0  0  0  0  0
   -0.5276   -1.2249   28.9880 H   0  0  0  0  0  0  0  0  0  0  0  0
    3.1408    1.4504   26.9162 H   0  0  0  0  0  0  0  0  0  0  0  0
    4.7122   -0.3411   27.4011 H   0  0  0  0  0  0  0  0  0  0  0  0
    6.3540   -2.7035   28.2341 H   0  0  0  0  0  0  0  0  0  0  0  0
    6.1744   -3.1380   26.4998 H   0  0  0  0  0  0  0  0  0  0  0  0
    8.3185   -3.1662   26.8757 H   0  0  0  0  0  0  0  0  0  0  0  0
    9.1692   -2.0614   27.9541 H   0  0  0  0  0  0  0  0  0  0  0  0
   10.8918   -0.2753   25.8748 H   0  0  0  0  0  0  0  0  0  0  0  0
   12.9021   -1.2169   24.4962 H   0  0  0  0  0  0  0  0  0  0  0  0
   10.1369   -4.5583   25.7522 H   0  0  0  0  0  0  0  0  0  0  0  0
   -1.0032    3.3037   28.0742 H   0  0  0  0  0  0  0  0  0  0  0  0
   -1.3409    2.5895   26.4748 H   0  0  0  0  0  0  0  0  0  0  0  0
  1  2  1  0
  2  3  2  0
  2  4  1  0
  4  5  2  0
  5  6  1  0
  6  7  2  0
  7  8  1  0
  8  9  2  0
  9 10  1  0
 10 11  1  0
 11 12  2  0
 11 13  1  0
 13 14  1  0
 14 15  1  0
 15 16  2  0
 15 17  1  0
 17 18  1  0
 18 19  1  0
 19 20  2  0
 20 21  1  0
 21 22  1  0
  7 23  1  0
 23 24  1  0
 24 25  1  0
  9  4  1  0
 22 18  2  0
 25  6  1  0
  1 26  1  0
  1 27  1  0
  1 28  1  0
  5 29  1  0
  8 30  1  0
 10 31  1  0
 13 32  1  0
 13 33  1  0
 17 34  1  0
 17 35  1  0
 19 36  1  0
 20 37  1  0
 22 38  1  0
 24 39  1  0
 24 40  1  0
M  END
>  <Energy>  (545) 
81.085038256209558

>  <compound_id>  (545) 
73547

>  <target_id>  (545) 
1

>  <reference_id>  (545) 
13

>  <inspiration_ids>  (545) 
[13, 66]

>  <energy_score>  (545) 
-53.29787821237028

>  <distance_score>  (545) 
6.56922741790842

>  <path>  (545) 
/opt/xchem-fragalysis-2/maxwin/BulkDock/SCRATCH/511017/C73547-P13/C73547-P13.minimised.mol

>  <scratch_subdir>  (545) 
/opt/xchem-fragalysis-2/maxwin/BulkDock/SCRATCH/511017/C73547-P13

>  <fragmenstein_runtime>  (545) 
7.8322296142578125

>  <fragmenstein_outcome>  (545) 
too moved

>  <fragmenstein_mode>  (545) 
expansion

>  <fragmenstein_error>  (545) 


$$$$
C73547-P66
     RDKit          3D

 40 42  0  0  0  0  0  0  0  0999 V2000
    2.8308   -2.1527   28.1382 C   0  0  0  0  0  0  0  0  0  0  0  0
    2.8408   -0.7776   28.7403 C   0  0  0  0  0  0  0  0  0  0  0  0
    3.2670   -0.5334   29.8671 O   0  0  0  0  0  0  0  0  0  0  0  0
    2.1571    0.2915   27.9975 C   0  0  0  0  0  0  0  0  0  0  0  0
    0.7465    0.1650   27.9968 C   0  0  0  0  0  0  0  0  0  0  0  0
   -0.0023    1.2179   27.5302 C   0  0  0  0  0  0  0  0  0  0  0  0
    0.5982    2.3626   27.0786 C   0  0  0  0  0  0  0  0  0  0  0  0
    1.9763    2.5110   27.0595 C   0  0  0  0  0  0  0  0  0  0  0  0
    2.8001    1.4567   27.5097 C   0  0  0  0  0  0  0  0  0  0  0  0
    4.1900    1.7115   27.3994 N   0  0  0  0  0  0  0  0  0  0  0  0
    5.3389    0.8049   27.4440 C   0  0  0  0  0  0  0  0  0  0  0  0
    5.3978   -0.3719   27.6640 O   0  0  0  0  0  0  0  0  0  0  0  0
    6.6547    1.6229   27.1669 C   0  0  0  0  0  0  0  0  0  0  0  0
    7.7692    0.8819   26.6354 O   0  0  0  0  0  0  0  0  0  0  0  0
    8.7727    1.6265   26.0603 C   0  0  0  0  0  0  0  0  0  0  0  0
    8.7531    2.8498   25.9954 O   0  0  0  0  0  0  0  0  0  0  0  0
    9.9136    0.7328   25.5819 C   0  0  0  0  0  0  0  0  0  0  0  0
   10.7103    1.1753   24.3500 C   0  0  0  0  0  0  0  0  0  0  0  0
   10.3276    2.1350   23.3464 C   0  0  0  0  0  0  0  0  0  0  0  0
   11.2352    2.2418   22.3136 C   0  0  0  0  0  0  0  0  0  0  0  0
   12.6040    1.2584   22.5663 S   0  0  0  0  0  0  0  0  0  0  0  0
   11.9346    0.6173   24.0039 C   0  0  0  0  0  0  0  0  0  0  0  0
   -0.3086    3.2880   26.6620 O   0  0  0  0  0  0  0  0  0  0  0  0
   -1.5524    2.6192   26.9696 C   0  0  0  0  0  0  0  0  0  0  0  0
   -1.3589    1.2773   27.4687 O   0  0  0  0  0  0  0  0  0  0  0  0
    2.6821   -2.1059   27.0557 H   0  0  0  0  0  0  0  0  0  0  0  0
    2.0369   -2.7507   28.5918 H   0  0  0  0  0  0  0  0  0  0  0  0
    3.8022   -2.6152   28.3266 H   0  0  0  0  0  0  0  0  0  0  0  0
    0.2558   -0.7196   28.3900 H   0  0  0  0  0  0  0  0  0  0  0  0
    2.3960    3.4349   26.6738 H   0  0  0  0  0  0  0  0  0  0  0  0
    4.5200    2.6588   27.2650 H   0  0  0  0  0  0  0  0  0  0  0  0
    6.4096    2.4463   26.4886 H   0  0  0  0  0  0  0  0  0  0  0  0
    6.9633    2.0441   28.1310 H   0  0  0  0  0  0  0  0  0  0  0  0
   10.6025    0.6228   26.4283 H   0  0  0  0  0  0  0  0  0  0  0  0
    9.4986   -0.2585   25.3645 H   0  0  0  0  0  0  0  0  0  0  0  0
    9.4117    2.7141   23.3679 H   0  0  0  0  0  0  0  0  0  0  0  0
   11.1680    2.8754   21.4397 H   0  0  0  0  0  0  0  0  0  0  0  0
   12.4798   -0.1534   24.5327 H   0  0  0  0  0  0  0  0  0  0  0  0
   -2.0930    3.2041   27.7226 H   0  0  0  0  0  0  0  0  0  0  0  0
   -2.1575    2.5685   26.0573 H   0  0  0  0  0  0  0  0  0  0  0  0
  1  2  1  0
  2  3  2  0
  2  4  1  0
  4  5  2  0
  5  6  1  0
  6  7  2  0
  7  8  1  0
  8  9  2  0
  9 10  1  0
 10 11  1  0
 11 12  2  0
 11 13  1  0
 13 14  1  0
 14 15  1  0
 15 16  2  0
 15 17  1  0
 17 18  1  0
 18 19  1  0
 19 20  2  0
 20 21  1  0
 21 22  1  0
  7 23  1  0
 23 24  1  0
 24 25  1  0
  9  4  1  0
 22 18  2  0
 25  6  1  0
  1 26  1  0
  1 27  1  0
  1 28  1  0
  5 29  1  0
  8 30  1  0
 10 31  1  0
 13 32  1  0
 13 33  1  0
 17 34  1  0
 17 35  1  0
 19 36  1  0
 20 37  1  0
 22 38  1  0
 24 39  1  0
 24 40  1  0
M  END
>  <Energy>  (546) 
78.739247220929101

>  <compound_id>  (546) 
73547

>  <target_id>  (546) 
1

>  <reference_id>  (546) 
66

>  <inspiration_ids>  (546) 
[13, 66]

>  <energy_score>  (546) 
-55.64366924765153

>  <distance_score>  (546) 
5.870116301768139

>  <path>  (546) 
/opt/xchem-fragalysis-2/maxwin/BulkDock/SCRATCH/511017/C73547-P66/C73547-P66.minimised.mol

>  <scratch_subdir>  (546) 
/opt/xchem-fragalysis-2/maxwin/BulkDock/SCRATCH/511017/C73547-P66

>  <fragmenstein_runtime>  (546) 
13.810710430145264

>  <fragmenstein_outcome>  (546) 
too moved

>  <fragmenstein_mode>  (546) 
expansion

>  <fragmenstein_error>  (546) 


$$$$
C73524-P13
     RDKit          3D

 31 33  0  0  0  0  0  0  0  0999 V2000
    4.8029    0.3083   25.9220 C   0  0  0  0  0  0  0  0  0  0  0  0
    4.6818    0.0257   24.4322 C   0  0  0  0  0  0  0  0  0  0  0  0
    4.5814   -1.1675   24.1226 O   0  0  0  0  0  0  0  0  0  0  0  0
    4.5660    1.3279   23.3320 C   0  0  0  0  0  0  0  0  0  0  0  0
    3.9376    2.3740   24.1582 C   0  0  0  0  0  0  0  0  0  0  0  0
    2.9092    3.1344   23.6823 C   0  0  0  0  0  0  0  0  0  0  0  0
    2.3880    2.8877   22.4507 C   0  0  0  0  0  0  0  0  0  0  0  0
    2.8487    1.8220   21.5342 C   0  0  0  0  0  0  0  0  0  0  0  0
    4.3780    1.0270   21.6525 C   0  0  0  0  0  0  0  0  0  0  0  0
    5.8842    0.4937   20.4639 N   0  0  0  0  0  0  0  0  0  0  0  0
    7.1844    1.4984   19.6256 C   0  0  0  0  0  0  0  0  0  0  0  0
    7.3484    2.7060   19.7751 O   0  0  0  0  0  0  0  0  0  0  0  0
    8.1276    0.9791   18.5354 C   0  0  0  0  0  0  0  0  0  0  0  0
    7.8401    0.2446   17.3193 C   0  0  0  0  0  0  0  0  0  0  0  0
    8.7099    0.3103   16.2510 C   0  0  0  0  0  0  0  0  0  0  0  0
    9.6694    1.6729   16.4483 S   0  0  0  0  0  0  0  0  0  0  0  0
    9.0778    1.8962   18.0502 C   0  0  0  0  0  0  0  0  0  0  0  0
    1.3006    3.6927   22.1941 O   0  0  0  0  0  0  0  0  0  0  0  0
    1.2143    4.4455   23.4213 C   0  0  0  0  0  0  0  0  0  0  0  0
    2.2088    4.0587   24.3888 O   0  0  0  0  0  0  0  0  0  0  0  0
    5.1694   -0.5938   26.4236 H   0  0  0  0  0  0  0  0  0  0  0  0
    5.5400    1.0915   26.1134 H   0  0  0  0  0  0  0  0  0  0  0  0
    3.8259    0.5623   26.3398 H   0  0  0  0  0  0  0  0  0  0  0  0
    4.2047    2.5197   25.1974 H   0  0  0  0  0  0  0  0  0  0  0  0
    2.2796    1.9721   20.6199 H   0  0  0  0  0  0  0  0  0  0  0  0
    6.0184   -0.4813   20.2392 H   0  0  0  0  0  0  0  0  0  0  0  0
    6.8955   -0.2543   17.1340 H   0  0  0  0  0  0  0  0  0  0  0  0
    8.6441   -0.2017   15.2973 H   0  0  0  0  0  0  0  0  0  0  0  0
    9.3821    2.8091   18.5491 H   0  0  0  0  0  0  0  0  0  0  0  0
    1.3382    5.5100   23.1916 H   0  0  0  0  0  0  0  0  0  0  0  0
    0.2210    4.2904   23.8574 H   0  0  0  0  0  0  0  0  0  0  0  0
  1  2  1  0
  2  3  2  0
  2  4  1  0
  4  5  2  0
  5  6  1  0
  6  7  2  0
  7  8  1  0
  8  9  2  0
  9 10  1  0
 10 11  1  0
 11 12  2  0
 11 13  1  0
 13 14  1  0
 14 15  2  0
 15 16  1  0
 16 17  1  0
  7 18  1  0
 18 19  1  0
 19 20  1  0
  9  4  1  0
 17 13  2  0
 20  6  1  0
  1 21  1  0
  1 22  1  0
  1 23  1  0
  5 24  1  0
  8 25  1  0
 10 26  1  0
 14 27  1  0
 15 28  1  0
 17 29  1  0
 19 30  1  0
 19 31  1  0
M  END
>  <Energy>  (547) 
405.54562486102395

>  <compound_id>  (547) 
73524

>  <target_id>  (547) 
1

>  <reference_id>  (547) 
13

>  <inspiration_ids>  (547) 
[13, 66]

>  <energy_score>  (547) 
340.63932280927304

>  <distance_score>  (547) 
6.628813091835366

>  <path>  (547) 
/opt/xchem-fragalysis-2/maxwin/BulkDock/SCRATCH/511017/C73524-P13/C73524-P13.minimised.mol

>  <scratch_subdir>  (547) 
/opt/xchem-fragalysis-2/maxwin/BulkDock/SCRATCH/511017/C73524-P13

>  <fragmenstein_runtime>  (547) 
6.711897850036621

>  <fragmenstein_outcome>  (547) 
too moved

>  <fragmenstein_mode>  (547) 
expansion

>  <fragmenstein_error>  (547) 


$$$$
C73524-P66
     RDKit          3D

 31 33  0  0  0  0  0  0  0  0999 V2000
    5.8662   -1.4024   27.0325 C   0  0  0  0  0  0  0  0  0  0  0  0
    6.4351   -1.6148   25.6007 C   0  0  0  0  0  0  0  0  0  0  0  0
    7.6250   -1.2510   25.5749 O   0  0  0  0  0  0  0  0  0  0  0  0
    5.4491   -2.2258   24.1664 C   0  0  0  0  0  0  0  0  0  0  0  0
    4.0722   -2.7969   24.8618 C   0  0  0  0  0  0  0  0  0  0  0  0
    3.4361   -2.0285   25.7417 C   0  0  0  0  0  0  0  0  0  0  0  0
    3.6479   -0.8360   25.2793 C   0  0  0  0  0  0  0  0  0  0  0  0
    4.4320   -0.7759   23.9927 C   0  0  0  0  0  0  0  0  0  0  0  0
    5.3119   -1.6384   22.8172 C   0  0  0  0  0  0  0  0  0  0  0  0
    6.1819   -0.7127   21.2920 N   0  0  0  0  0  0  0  0  0  0  0  0
    7.7528   -1.1208   20.2110 C   0  0  0  0  0  0  0  0  0  0  0  0
    8.1509   -2.1708   20.5231 O   0  0  0  0  0  0  0  0  0  0  0  0
    9.1172   -0.2925   18.8362 C   0  0  0  0  0  0  0  0  0  0  0  0
   10.4295   -0.9854   17.0797 C   0  0  0  0  0  0  0  0  0  0  0  0
   11.1795    0.6635   16.0960 C   0  0  0  0  0  0  0  0  0  0  0  0
   10.9012    2.5324   17.7298 S   0  0  0  0  0  0  0  0  0  0  0  0
    9.9122    1.2847   19.6425 C   0  0  0  0  0  0  0  0  0  0  0  0
    3.0978    0.1391   26.0415 O   0  0  0  0  0  0  0  0  0  0  0  0
    2.4576   -0.6942   27.0475 C   0  0  0  0  0  0  0  0  0  0  0  0
    2.6048   -2.1082   26.7697 O   0  0  0  0  0  0  0  0  0  0  0  0
    5.1536   -2.1287   27.4106 H   0  0  0  0  0  0  0  0  0  0  0  0
    6.7127   -1.4899   27.7280 H   0  0  0  0  0  0  0  0  0  0  0  0
    5.4957   -0.3796   27.1329 H   0  0  0  0  0  0  0  0  0  0  0  0
    3.3328   -3.1275   24.1230 H   0  0  0  0  0  0  0  0  0  0  0  0
    4.3570    0.3166   23.9368 H   0  0  0  0  0  0  0  0  0  0  0  0
    5.9082    0.1983   21.0786 H   0  0  0  0  0  0  0  0  0  0  0  0
   10.1867   -1.8403   16.3998 H   0  0  0  0  0  0  0  0  0  0  0  0
   11.5413    0.8788   15.0931 H   0  0  0  0  0  0  0  0  0  0  0  0
    9.4295    2.0002   20.3058 H   0  0  0  0  0  0  0  0  0  0  0  0
    2.9141   -0.4768   28.0212 H   0  0  0  0  0  0  0  0  0  0  0  0
    1.3919   -0.4467   27.1029 H   0  0  0  0  0  0  0  0  0  0  0  0
  1  2  1  0
  2  3  2  0
  2  4  1  0
  4  5  2  0
  5  6  1  0
  6  7  2  0
  7  8  1  0
  8  9  2  0
  9 10  1  0
 10 11  1  0
 11 12  2  0
 11 13  1  0
 13 14  1  0
 14 15  2  0
 15 16  1  0
 16 17  1  0
  7 18  1  0
 18 19  1  0
 19 20  1  0
  9  4  1  0
 17 13  2  0
 20  6  1  0
  1 21  1  0
  1 22  1  0
  1 23  1  0
  5 24  1  0
  8 25  1  0
 10 26  1  0
 14 27  1  0
 15 28  1  0
 17 29  1  0
 19 30  1  0
 19 31  1  0
M  END
>  <Energy>  (548) 
1536.3236376427999

>  <compound_id>  (548) 
73524

>  <target_id>  (548) 
1

>  <reference_id>  (548) 
66

>  <inspiration_ids>  (548) 
[13, 66]

>  <energy_score>  (548) 
1471.4173355910782

>  <distance_score>  (548) 
6.308617886568199

>  <path>  (548) 
/opt/xchem-fragalysis-2/maxwin/BulkDock/SCRATCH/511017/C73524-P66/C73524-P66.minimised.mol

>  <scratch_subdir>  (548) 
/opt/xchem-fragalysis-2/maxwin/BulkDock/SCRATCH/511017/C73524-P66

>  <fragmenstein_runtime>  (548) 
6.526426792144775

>  <fragmenstein_outcome>  (548) 
too moved

>  <fragmenstein_mode>  (548) 
expansion

>  <fragmenstein_error>  (548) 


$$$$
C73548-P13
     RDKit          3D

 44 46  0  0  0  0  0  0  0  0999 V2000
    4.1214   -2.5280   27.4656 C   0  0  0  0  0  0  0  0  0  0  0  0
    4.2858   -1.4904   26.3766 C   0  0  0  0  0  0  0  0  0  0  0  0
    4.7451   -1.7977   25.2780 O   0  0  0  0  0  0  0  0  0  0  0  0
    3.8096   -0.0956   26.6177 C   0  0  0  0  0  0  0  0  0  0  0  0
    2.9188    0.1076   27.7008 C   0  0  0  0  0  0  0  0  0  0  0  0
    2.3224    1.3390   27.8467 C   0  0  0  0  0  0  0  0  0  0  0  0
    2.6530    2.3872   27.0345 C   0  0  0  0  0  0  0  0  0  0  0  0
    3.5602    2.2487   25.9996 C   0  0  0  0  0  0  0  0  0  0  0  0
    4.0852    0.9704   25.7048 C   0  0  0  0  0  0  0  0  0  0  0  0
    4.4020    0.7299   24.3375 N   0  0  0  0  0  0  0  0  0  0  0  0
    4.3242    1.6270   23.1452 C   0  0  0  0  0  0  0  0  0  0  0  0
    4.0543    2.7984   23.0691 O   0  0  0  0  0  0  0  0  0  0  0  0
    4.5507    0.7798   21.3622 C   0  0  0  0  0  0  0  0  0  0  0  0
    6.3036    0.5384   20.2436 C   0  0  0  0  0  0  0  0  0  0  0  0
    7.3117    0.0892   19.1462 C   0  0  0  0  0  0  0  0  0  0  0  0
    8.0253    0.9838   18.2404 N   0  0  0  0  0  0  0  0  0  0  0  0
    8.8999    0.7046   17.1472 C   0  0  0  0  0  0  0  0  0  0  0  0
    9.3356   -0.3331   16.7446 O   0  0  0  0  0  0  0  0  0  0  0  0
    9.3260    1.8632   16.3409 C   0  0  0  0  0  0  0  0  0  0  0  0
   10.0232    1.6873   15.0795 C   0  0  0  0  0  0  0  0  0  0  0  0
   10.4103    2.8690   14.5009 C   0  0  0  0  0  0  0  0  0  0  0  0
    9.9410    4.2061   15.4456 S   0  0  0  0  0  0  0  0  0  0  0  0
    9.2049    3.2057   16.6278 C   0  0  0  0  0  0  0  0  0  0  0  0
    1.9176    3.5001   27.3054 O   0  0  0  0  0  0  0  0  0  0  0  0
    1.0317    3.0058   28.3312 C   0  0  0  0  0  0  0  0  0  0  0  0
    1.3367    1.6498   28.7308 O   0  0  0  0  0  0  0  0  0  0  0  0
    4.4641   -2.1376   28.4276 H   0  0  0  0  0  0  0  0  0  0  0  0
    4.7484   -3.3927   27.2254 H   0  0  0  0  0  0  0  0  0  0  0  0
    3.0813   -2.8573   27.5226 H   0  0  0  0  0  0  0  0  0  0  0  0
    2.6127   -0.6880   28.3700 H   0  0  0  0  0  0  0  0  0  0  0  0
    3.7125    3.0968   25.3397 H   0  0  0  0  0  0  0  0  0  0  0  0
    4.5756   -0.2234   24.0263 H   0  0  0  0  0  0  0  0  0  0  0  0
    3.5725    1.1498   21.0991 H   0  0  0  0  0  0  0  0  0  0  0  0
    4.5428   -0.2826   21.7043 H   0  0  0  0  0  0  0  0  0  0  0  0
    6.9640    1.4856   20.4215 H   0  0  0  0  0  0  0  0  0  0  0  0
    5.8251    0.6573   19.2462 H   0  0  0  0  0  0  0  0  0  0  0  0
    8.0917   -0.4862   19.5678 H   0  0  0  0  0  0  0  0  0  0  0  0
    6.7394   -0.4175   18.3816 H   0  0  0  0  0  0  0  0  0  0  0  0
    7.7995    1.9696   18.2371 H   0  0  0  0  0  0  0  0  0  0  0  0
   10.2324    0.7182   14.6367 H   0  0  0  0  0  0  0  0  0  0  0  0
   10.9450    3.0101   13.5720 H   0  0  0  0  0  0  0  0  0  0  0  0
    8.7637    3.6807   17.4918 H   0  0  0  0  0  0  0  0  0  0  0  0
    1.1140    3.6556   29.2097 H   0  0  0  0  0  0  0  0  0  0  0  0
    0.0011    3.0411   27.9588 H   0  0  0  0  0  0  0  0  0  0  0  0
  1  2  1  0
  2  3  2  0
  2  4  1  0
  4  5  2  0
  5  6  1  0
  6  7  2  0
  7  8  1  0
  8  9  2  0
  9 10  1  0
 10 11  1  0
 11 12  2  0
 11 13  1  0
 13 14  1  0
 14 15  1  0
 15 16  1  0
 16 17  1  0
 17 18  2  0
 17 19  1  0
 19 20  1  0
 20 21  2  0
 21 22  1  0
 22 23  1  0
  7 24  1  0
 24 25  1  0
 25 26  1  0
  9  4  1  0
 23 19  2  0
 26  6  1  0
  1 27  1  0
  1 28  1  0
  1 29  1  0
  5 30  1  0
  8 31  1  0
 10 32  1  0
 13 33  1  0
 13 34  1  0
 14 35  1  0
 14 36  1  0
 15 37  1  0
 15 38  1  0
 16 39  1  0
 20 40  1  0
 21 41  1  0
 23 42  1  0
 25 43  1  0
 25 44  1  0
M  END
>  <Energy>  (549) 
266.65482109417809

>  <compound_id>  (549) 
73548

>  <target_id>  (549) 
1

>  <reference_id>  (549) 
13

>  <inspiration_ids>  (549) 
[13, 66]

>  <energy_score>  (549) 
191.30599928702878

>  <distance_score>  (549) 
5.324656904808595

>  <path>  (549) 
/opt/xchem-fragalysis-2/maxwin/BulkDock/SCRATCH/511017/C73548-P13/C73548-P13.minimised.mol

>  <scratch_subdir>  (549) 
/opt/xchem-fragalysis-2/maxwin/BulkDock/SCRATCH/511017/C73548-P13

>  <fragmenstein_runtime>  (549) 
8.853469371795654

>  <fragmenstein_outcome>  (549) 
too moved

>  <fragmenstein_mode>  (549) 
expansion

>  <fragmenstein_error>  (549) 


$$$$
C73548-P66
     RDKit          3D

 44 46  0  0  0  0  0  0  0  0999 V2000
    0.5066   -3.1717   28.9705 C   0  0  0  0  0  0  0  0  0  0  0  0
    1.5473   -2.1324   28.6267 C   0  0  0  0  0  0  0  0  0  0  0  0
    2.7448   -2.3879   28.7618 O   0  0  0  0  0  0  0  0  0  0  0  0
    1.0997   -0.7751   28.1612 C   0  0  0  0  0  0  0  0  0  0  0  0
   -0.2809   -0.4871   28.1300 C   0  0  0  0  0  0  0  0  0  0  0  0
   -0.6799    0.7655   27.7195 C   0  0  0  0  0  0  0  0  0  0  0  0
    0.2274    1.7264   27.3557 C   0  0  0  0  0  0  0  0  0  0  0  0
    1.5896    1.4892   27.3744 C   0  0  0  0  0  0  0  0  0  0  0  0
    2.0484    0.2207   27.7689 C   0  0  0  0  0  0  0  0  0  0  0  0
    3.4247   -0.0746   27.7465 N   0  0  0  0  0  0  0  0  0  0  0  0
    4.5707    0.7474   27.3954 C   0  0  0  0  0  0  0  0  0  0  0  0
    4.6420    1.9117   27.1106 O   0  0  0  0  0  0  0  0  0  0  0  0
    5.8492   -0.1148   27.4478 C   0  0  0  0  0  0  0  0  0  0  0  0
    7.1180    0.6759   27.0736 C   0  0  0  0  0  0  0  0  0  0  0  0
    8.3448   -0.2136   26.8535 C   0  0  0  0  0  0  0  0  0  0  0  0
    9.3009    0.3496   25.9153 N   0  0  0  0  0  0  0  0  0  0  0  0
   10.7226    0.1945   25.8144 C   0  0  0  0  0  0  0  0  0  0  0  0
   11.4967   -0.3747   26.5246 O   0  0  0  0  0  0  0  0  0  0  0  0
   11.2676    0.7773   24.5411 C   0  0  0  0  0  0  0  0  0  0  0  0
   10.7038    1.7623   23.6479 C   0  0  0  0  0  0  0  0  0  0  0  0
   11.4709    1.9934   22.5238 C   0  0  0  0  0  0  0  0  0  0  0  0
   12.9311    1.1161   22.5592 S   0  0  0  0  0  0  0  0  0  0  0  0
   12.4911    0.3585   24.0276 C   0  0  0  0  0  0  0  0  0  0  0  0
   -0.3785    2.8791   26.9617 O   0  0  0  0  0  0  0  0  0  0  0  0
   -1.7712    2.5466   27.1467 C   0  0  0  0  0  0  0  0  0  0  0  0
   -1.9672    1.1904   27.6081 O   0  0  0  0  0  0  0  0  0  0  0  0
   -0.0776   -2.8509   29.8367 H   0  0  0  0  0  0  0  0  0  0  0  0
    1.0100   -4.1080   29.2313 H   0  0  0  0  0  0  0  0  0  0  0  0
   -0.1390   -3.3702   28.1127 H   0  0  0  0  0  0  0  0  0  0  0  0
   -1.0421   -1.2096   28.3989 H   0  0  0  0  0  0  0  0  0  0  0  0
    2.2686    2.2742   27.0592 H   0  0  0  0  0  0  0  0  0  0  0  0
    3.7505   -1.0079   28.0102 H   0  0  0  0  0  0  0  0  0  0  0  0
    5.7122   -0.9443   26.7445 H   0  0  0  0  0  0  0  0  0  0  0  0
    5.9579   -0.5267   28.4574 H   0  0  0  0  0  0  0  0  0  0  0  0
    6.9215    1.2578   26.1715 H   0  0  0  0  0  0  0  0  0  0  0  0
    7.3387    1.4152   27.8537 H   0  0  0  0  0  0  0  0  0  0  0  0
    8.0497   -1.1776   26.4248 H   0  0  0  0  0  0  0  0  0  0  0  0
    8.8592   -0.4198   27.7976 H   0  0  0  0  0  0  0  0  0  0  0  0
    8.9639    0.8213   25.0942 H   0  0  0  0  0  0  0  0  0  0  0  0
    9.7720    2.2885   23.8121 H   0  0  0  0  0  0  0  0  0  0  0  0
   11.2576    2.6686   21.7060 H   0  0  0  0  0  0  0  0  0  0  0  0
   13.1534   -0.3827   24.4568 H   0  0  0  0  0  0  0  0  0  0  0  0
   -2.2068    3.2376   27.8760 H   0  0  0  0  0  0  0  0  0  0  0  0
   -2.2911    2.6675   26.1894 H   0  0  0  0  0  0  0  0  0  0  0  0
  1  2  1  0
  2  3  2  0
  2  4  1  0
  4  5  2  0
  5  6  1  0
  6  7  2  0
  7  8  1  0
  8  9  2  0
  9 10  1  0
 10 11  1  0
 11 12  2  0
 11 13  1  0
 13 14  1  0
 14 15  1  0
 15 16  1  0
 16 17  1  0
 17 18  2  0
 17 19  1  0
 19 20  1  0
 20 21  2  0
 21 22  1  0
 22 23  1  0
  7 24  1  0
 24 25  1  0
 25 26  1  0
  9  4  1  0
 23 19  2  0
 26  6  1  0
  1 27  1  0
  1 28  1  0
  1 29  1  0
  5 30  1  0
  8 31  1  0
 10 32  1  0
 13 33  1  0
 13 34  1  0
 14 35  1  0
 14 36  1  0
 15 37  1  0
 15 38  1  0
 16 39  1  0
 20 40  1  0
 21 41  1  0
 23 42  1  0
 25 43  1  0
 25 44  1  0
M  END
>  <Energy>  (550) 
13.221175594190198

>  <compound_id>  (550) 
73548

>  <target_id>  (550) 
1

>  <reference_id>  (550) 
66

>  <inspiration_ids>  (550) 
[13, 66]

>  <energy_score>  (550) 
-62.1276462129577

>  <distance_score>  (550) 
5.350098961623504

>  <path>  (550) 
/opt/xchem-fragalysis-2/maxwin/BulkDock/SCRATCH/511017/C73548-P66/C73548-P66.minimised.mol

>  <scratch_subdir>  (550) 
/opt/xchem-fragalysis-2/maxwin/BulkDock/SCRATCH/511017/C73548-P66

>  <fragmenstein_runtime>  (550) 
12.19285249710083

>  <fragmenstein_outcome>  (550) 
too moved

>  <fragmenstein_mode>  (550) 
expansion

>  <fragmenstein_error>  (550) 


$$$$
C73549-P13
     RDKit          3D

 34 36  0  0  0  0  0  0  0  0999 V2000
    4.7598   -3.5951   25.5825 C   0  0  0  0  0  0  0  0  0  0  0  0
    5.3624   -2.2732   25.1465 C   0  0  0  0  0  0  0  0  0  0  0  0
    6.3213   -1.8201   25.7888 O   0  0  0  0  0  0  0  0  0  0  0  0
    4.5672   -1.2620   24.3359 C   0  0  0  0  0  0  0  0  0  0  0  0
    3.9189   -0.6817   25.5811 C   0  0  0  0  0  0  0  0  0  0  0  0
    3.5955    0.6281   25.7802 C   0  0  0  0  0  0  0  0  0  0  0  0
    3.9584    1.5124   24.8468 C   0  0  0  0  0  0  0  0  0  0  0  0
    4.5771    1.0761   23.6535 C   0  0  0  0  0  0  0  0  0  0  0  0
    4.9103   -0.4032   23.0894 C   0  0  0  0  0  0  0  0  0  0  0  0
    5.4959   -0.6911   21.2493 N   0  0  0  0  0  0  0  0  0  0  0  0
    6.6056    0.3827   20.1152 C   0  0  0  0  0  0  0  0  0  0  0  0
    7.1024    1.5405   20.3238 O   0  0  0  0  0  0  0  0  0  0  0  0
    7.1124   -0.1378   18.8371 C   0  0  0  0  0  0  0  0  0  0  0  0
    8.0958    0.7318   17.8524 C   0  0  0  0  0  0  0  0  0  0  0  0
    8.5670    2.0770   18.0084 C   0  0  0  0  0  0  0  0  0  0  0  0
    9.2681    2.5420   16.9156 C   0  0  0  0  0  0  0  0  0  0  0  0
    9.4913    1.3522   15.7254 S   0  0  0  0  0  0  0  0  0  0  0  0
    8.5073    0.2678   16.5967 C   0  0  0  0  0  0  0  0  0  0  0  0
    3.5507    2.7764   25.1424 O   0  0  0  0  0  0  0  0  0  0  0  0
    2.8919    2.5554   26.4089 C   0  0  0  0  0  0  0  0  0  0  0  0
    2.9348    1.1739   26.8270 O   0  0  0  0  0  0  0  0  0  0  0  0
    4.7682   -3.6374   26.6769 H   0  0  0  0  0  0  0  0  0  0  0  0
    5.3616   -4.4214   25.1989 H   0  0  0  0  0  0  0  0  0  0  0  0
    3.7226   -3.6995   25.2745 H   0  0  0  0  0  0  0  0  0  0  0  0
    3.7535   -1.3132   26.4613 H   0  0  0  0  0  0  0  0  0  0  0  0
    4.6264    1.8900   22.9815 H   0  0  0  0  0  0  0  0  0  0  0  0
    5.3437   -1.6009   20.8224 H   0  0  0  0  0  0  0  0  0  0  0  0
    6.3730   -0.4915   18.1235 H   0  0  0  0  0  0  0  0  0  0  0  0
    7.9027   -0.7085   19.2866 H   0  0  0  0  0  0  0  0  0  0  0  0
    8.3689    2.7191   18.8574 H   0  0  0  0  0  0  0  0  0  0  0  0
    9.6946    3.5277   16.7910 H   0  0  0  0  0  0  0  0  0  0  0  0
    8.2542   -0.6560   16.0972 H   0  0  0  0  0  0  0  0  0  0  0  0
    3.3814    3.1704   27.1727 H   0  0  0  0  0  0  0  0  0  0  0  0
    1.8442    2.8653   26.3202 H   0  0  0  0  0  0  0  0  0  0  0  0
  1  2  1  0
  2  3  2  0
  2  4  1  0
  4  5  2  0
  5  6  1  0
  6  7  2  0
  7  8  1  0
  8  9  2  0
  9 10  1  0
 10 11  1  0
 11 12  2  0
 11 13  1  0
 13 14  1  0
 14 15  1  0
 15 16  2  0
 16 17  1  0
 17 18  1  0
  7 19  1  0
 19 20  1  0
 20 21  1  0
  9  4  1  0
 18 14  2  0
 21  6  1  0
  1 22  1  0
  1 23  1  0
  1 24  1  0
  5 25  1  0
  8 26  1  0
 10 27  1  0
 13 28  1  0
 13 29  1  0
 15 30  1  0
 16 31  1  0
 18 32  1  0
 20 33  1  0
 20 34  1  0
M  END
>  <Energy>  (551) 
362.50283702850197

>  <compound_id>  (551) 
73549

>  <target_id>  (551) 
1

>  <reference_id>  (551) 
13

>  <inspiration_ids>  (551) 
[13, 66]

>  <energy_score>  (551) 
267.63654434523653

>  <distance_score>  (551) 
6.26453577050417

>  <path>  (551) 
/opt/xchem-fragalysis-2/maxwin/BulkDock/SCRATCH/511017/C73549-P13/C73549-P13.minimised.mol

>  <scratch_subdir>  (551) 
/opt/xchem-fragalysis-2/maxwin/BulkDock/SCRATCH/511017/C73549-P13

>  <fragmenstein_runtime>  (551) 
4.99423885345459

>  <fragmenstein_outcome>  (551) 
too moved

>  <fragmenstein_mode>  (551) 
expansion

>  <fragmenstein_error>  (551) 


$$$$
C73549-P66
     RDKit          3D

 34 36  0  0  0  0  0  0  0  0999 V2000
    7.6089   -2.3467   27.3328 C   0  0  0  0  0  0  0  0  0  0  0  0
    7.2507   -1.5378   26.0937 C   0  0  0  0  0  0  0  0  0  0  0  0
    8.0930   -0.7777   25.6146 O   0  0  0  0  0  0  0  0  0  0  0  0
    5.7917   -1.4830   25.6929 C   0  0  0  0  0  0  0  0  0  0  0  0
    5.1944   -0.7779   26.7696 C   0  0  0  0  0  0  0  0  0  0  0  0
    3.8642   -0.8484   26.8823 C   0  0  0  0  0  0  0  0  0  0  0  0
    3.1565   -1.5465   25.9449 C   0  0  0  0  0  0  0  0  0  0  0  0
    3.6884   -2.0874   24.7050 C   0  0  0  0  0  0  0  0  0  0  0  0
    5.0586   -2.1522   24.4842 C   0  0  0  0  0  0  0  0  0  0  0  0
    5.8536   -2.2207   23.0683 N   0  0  0  0  0  0  0  0  0  0  0  0
    7.0621   -3.4383   22.4383 C   0  0  0  0  0  0  0  0  0  0  0  0
    7.3893   -4.4867   22.9791 O   0  0  0  0  0  0  0  0  0  0  0  0
    8.0545   -2.7636   20.6817 C   0  0  0  0  0  0  0  0  0  0  0  0
    8.4369   -1.4057   18.9567 C   0  0  0  0  0  0  0  0  0  0  0  0
    7.4693   -0.2828   18.4362 C   0  0  0  0  0  0  0  0  0  0  0  0
    7.0481   -0.3977   16.8802 C   0  0  0  0  0  0  0  0  0  0  0  0
    7.8797   -1.2178   15.5276 S   0  0  0  0  0  0  0  0  0  0  0  0
    9.0687   -1.6011   17.0278 C   0  0  0  0  0  0  0  0  0  0  0  0
    1.8870   -1.6621   26.4479 O   0  0  0  0  0  0  0  0  0  0  0  0
    1.8570   -0.8142   27.5904 C   0  0  0  0  0  0  0  0  0  0  0  0
    3.1572   -0.3488   27.9278 O   0  0  0  0  0  0  0  0  0  0  0  0
    8.1537   -1.6927   28.0221 H   0  0  0  0  0  0  0  0  0  0  0  0
    8.2582   -3.1773   27.0489 H   0  0  0  0  0  0  0  0  0  0  0  0
    6.7403   -2.7221   27.8778 H   0  0  0  0  0  0  0  0  0  0  0  0
    5.7765   -0.2773   27.5363 H   0  0  0  0  0  0  0  0  0  0  0  0
    3.0331   -2.4851   23.9487 H   0  0  0  0  0  0  0  0  0  0  0  0
    5.7133   -1.4979   22.3824 H   0  0  0  0  0  0  0  0  0  0  0  0
    9.0009   -3.2004   20.3553 H   0  0  0  0  0  0  0  0  0  0  0  0
    8.1182   -3.9236   20.5660 H   0  0  0  0  0  0  0  0  0  0  0  0
    6.8256    0.1384   19.1804 H   0  0  0  0  0  0  0  0  0  0  0  0
    6.0708   -0.3957   16.4627 H   0  0  0  0  0  0  0  0  0  0  0  0
   10.0181   -2.0134   16.5796 H   0  0  0  0  0  0  0  0  0  0  0  0
    1.2028    0.0433   27.3947 H   0  0  0  0  0  0  0  0  0  0  0  0
    1.4482   -1.3762   28.4374 H   0  0  0  0  0  0  0  0  0  0  0  0
  1  2  1  0
  2  3  2  0
  2  4  1  0
  4  5  2  0
  5  6  1  0
  6  7  2  0
  7  8  1  0
  8  9  2  0
  9 10  1  0
 10 11  1  0
 11 12  2  0
 11 13  1  0
 13 14  1  0
 14 15  1  0
 15 16  2  0
 16 17  1  0
 17 18  1  0
  7 19  1  0
 19 20  1  0
 20 21  1  0
  9  4  1  0
 18 14  2  0
 21  6  1  0
  1 22  1  0
  1 23  1  0
  1 24  1  0
  5 25  1  0
  8 26  1  0
 10 27  1  0
 13 28  1  0
 13 29  1  0
 15 30  1  0
 16 31  1  0
 18 32  1  0
 20 33  1  0
 20 34  1  0
M  END
>  <Energy>  (552) 
814.46604094277245

>  <compound_id>  (552) 
73549

>  <target_id>  (552) 
1

>  <reference_id>  (552) 
66

>  <inspiration_ids>  (552) 
[13, 66]

>  <energy_score>  (552) 
719.5997482595149

>  <distance_score>  (552) 
6.6158781299753935

>  <path>  (552) 
/opt/xchem-fragalysis-2/maxwin/BulkDock/SCRATCH/511017/C73549-P66/C73549-P66.minimised.mol

>  <scratch_subdir>  (552) 
/opt/xchem-fragalysis-2/maxwin/BulkDock/SCRATCH/511017/C73549-P66

>  <fragmenstein_runtime>  (552) 
6.047110080718994

>  <fragmenstein_outcome>  (552) 
too moved

>  <fragmenstein_mode>  (552) 
expansion

>  <fragmenstein_error>  (552) 


$$$$
C73550-P13
     RDKit          3D

 37 39  0  0  0  0  0  0  0  0999 V2000
    6.4654    3.1040   20.7868 O   0  0  0  0  0  0  0  0  0  0  0  0
    6.1297    2.0226   21.1906 C   0  0  0  0  0  0  0  0  0  0  0  0
    6.6975    0.6155   20.0892 N   0  0  0  0  0  0  0  0  0  0  0  0
    7.5437    0.5794   18.9005 C   0  0  0  0  0  0  0  0  0  0  0  0
    8.1055    1.8917   18.2524 C   0  0  0  0  0  0  0  0  0  0  0  0
    8.8722    2.6023   19.2272 O   0  0  0  0  0  0  0  0  0  0  0  0
    8.9243    1.6284   16.9781 C   0  0  0  0  0  0  0  0  0  0  0  0
    8.9324    0.4390   16.1668 C   0  0  0  0  0  0  0  0  0  0  0  0
    9.8386    0.4824   15.1321 C   0  0  0  0  0  0  0  0  0  0  0  0
   10.5831    2.0049   15.0078 S   0  0  0  0  0  0  0  0  0  0  0  0
    9.7170    2.5849   16.3638 C   0  0  0  0  0  0  0  0  0  0  0  0
    4.8716    1.6597   22.8622 C   0  0  0  0  0  0  0  0  0  0  0  0
    4.9590    0.6059   23.4516 O   0  0  0  0  0  0  0  0  0  0  0  0
    3.9911    2.8910   23.2093 N   0  0  0  0  0  0  0  0  0  0  0  0
    3.0831    3.1054   24.2584 C   0  0  0  0  0  0  0  0  0  0  0  0
    3.2512    2.3702   25.4507 C   0  0  0  0  0  0  0  0  0  0  0  0
    2.3138    2.4229   26.5024 C   0  0  0  0  0  0  0  0  0  0  0  0
    1.1564    3.1804   26.3630 C   0  0  0  0  0  0  0  0  0  0  0  0
    0.9975    3.8785   25.1826 C   0  0  0  0  0  0  0  0  0  0  0  0
    1.9409    3.8742   24.1663 C   0  0  0  0  0  0  0  0  0  0  0  0
    1.5175    4.5881   23.0888 O   0  0  0  0  0  0  0  0  0  0  0  0
    0.2160    5.0299   23.5330 C   0  0  0  0  0  0  0  0  0  0  0  0
   -0.1163    4.5921   24.8623 O   0  0  0  0  0  0  0  0  0  0  0  0
    6.2931   -0.2487   20.4572 H   0  0  0  0  0  0  0  0  0  0  0  0
    6.9879    0.0176   18.1713 H   0  0  0  0  0  0  0  0  0  0  0  0
    8.3865    0.0007   19.2397 H   0  0  0  0  0  0  0  0  0  0  0  0
    7.3220    2.6028   17.9844 H   0  0  0  0  0  0  0  0  0  0  0  0
    8.2114    3.1180   19.7293 H   0  0  0  0  0  0  0  0  0  0  0  0
    8.3003   -0.4218   16.3060 H   0  0  0  0  0  0  0  0  0  0  0  0
   10.0593   -0.2916   14.4132 H   0  0  0  0  0  0  0  0  0  0  0  0
    9.8711    3.6032   16.6972 H   0  0  0  0  0  0  0  0  0  0  0  0
    4.0835    3.5896   22.4641 H   0  0  0  0  0  0  0  0  0  0  0  0
    4.1189    1.7230   25.5717 H   0  0  0  0  0  0  0  0  0  0  0  0
    2.4830    1.8405   27.4045 H   0  0  0  0  0  0  0  0  0  0  0  0
    0.3982    3.2104   27.1379 H   0  0  0  0  0  0  0  0  0  0  0  0
   -0.5385    4.6452   22.8370 H   0  0  0  0  0  0  0  0  0  0  0  0
    0.1918    6.1254   23.5066 H   0  0  0  0  0  0  0  0  0  0  0  0
  1  2  2  0
  2  3  1  0
  3  4  1  0
  4  5  1  0
  5  6  1  0
  5  7  1  0
  7  8  1  0
  8  9  2  0
  9 10  1  0
 10 11  1  0
  2 12  1  0
 12 13  2  0
 12 14  1  0
 14 15  1  0
 15 16  2  0
 16 17  1  0
 17 18  2  0
 18 19  1  0
 19 20  2  0
 20 21  1  0
 21 22  1  0
 22 23  1  0
 11  7  2  0
 20 15  1  0
 23 19  1  0
  3 24  1  0
  4 25  1  0
  4 26  1  0
  5 27  1  0
  6 28  1  0
  8 29  1  0
  9 30  1  0
 11 31  1  0
 14 32  1  0
 16 33  1  0
 17 34  1  0
 18 35  1  0
 22 36  1  0
 22 37  1  0
M  END
>  <Energy>  (553) 
248.83634033055071

>  <compound_id>  (553) 
73550

>  <target_id>  (553) 
1

>  <reference_id>  (553) 
13

>  <inspiration_ids>  (553) 
[13, 66]

>  <energy_score>  (553) 
98.17989063522646

>  <distance_score>  (553) 
5.302401343587748

>  <path>  (553) 
/opt/xchem-fragalysis-2/maxwin/BulkDock/SCRATCH/511017/C73550-P13/C73550-P13.minimised.mol

>  <scratch_subdir>  (553) 
/opt/xchem-fragalysis-2/maxwin/BulkDock/SCRATCH/511017/C73550-P13

>  <fragmenstein_runtime>  (553) 
5.741219758987427

>  <fragmenstein_outcome>  (553) 
too moved

>  <fragmenstein_mode>  (553) 
expansion

>  <fragmenstein_error>  (553) 


$$$$
C73550-P66
     RDKit          3D

 37 39  0  0  0  0  0  0  0  0999 V2000
    5.9404   -0.4323   21.2181 O   0  0  0  0  0  0  0  0  0  0  0  0
    5.7797    0.7288   21.4960 C   0  0  0  0  0  0  0  0  0  0  0  0
    6.9765    2.0696   20.9944 N   0  0  0  0  0  0  0  0  0  0  0  0
    8.1802    2.0164   20.1751 C   0  0  0  0  0  0  0  0  0  0  0  0
    9.2083    3.0973   20.6591 C   0  0  0  0  0  0  0  0  0  0  0  0
    9.5481    2.8341   22.0326 O   0  0  0  0  0  0  0  0  0  0  0  0
   10.4676    3.3461   19.8502 C   0  0  0  0  0  0  0  0  0  0  0  0
   10.5054    3.9436   18.5396 C   0  0  0  0  0  0  0  0  0  0  0  0
   11.7820    4.0625   18.0353 C   0  0  0  0  0  0  0  0  0  0  0  0
   12.9624    3.5405   19.1544 S   0  0  0  0  0  0  0  0  0  0  0  0
   11.7614    3.1095   20.2915 C   0  0  0  0  0  0  0  0  0  0  0  0
    4.1833    1.0544   22.7104 C   0  0  0  0  0  0  0  0  0  0  0  0
    4.3294    0.3711   23.8375 O   0  0  0  0  0  0  0  0  0  0  0  0
    2.9330    2.1874   22.3609 N   0  0  0  0  0  0  0  0  0  0  0  0
    1.8865    2.7177   23.1753 C   0  0  0  0  0  0  0  0  0  0  0  0
    1.8725    2.4492   24.5694 C   0  0  0  0  0  0  0  0  0  0  0  0
    0.8602    2.9167   25.4307 C   0  0  0  0  0  0  0  0  0  0  0  0
   -0.1685    3.6923   24.9209 C   0  0  0  0  0  0  0  0  0  0  0  0
   -0.1079    4.0119   23.5792 C   0  0  0  0  0  0  0  0  0  0  0  0
    0.8991    3.5735   22.7301 C   0  0  0  0  0  0  0  0  0  0  0  0
    0.7287    4.0426   21.4660 O   0  0  0  0  0  0  0  0  0  0  0  0
   -0.4029    4.9174   21.6504 C   0  0  0  0  0  0  0  0  0  0  0  0
   -1.0274    4.7840   22.9388 O   0  0  0  0  0  0  0  0  0  0  0  0
    6.5924    2.9865   21.2608 H   0  0  0  0  0  0  0  0  0  0  0  0
    7.8069    2.2823   19.1852 H   0  0  0  0  0  0  0  0  0  0  0  0
    8.5855    1.0053   20.2164 H   0  0  0  0  0  0  0  0  0  0  0  0
    8.6733    4.0569   20.6851 H   0  0  0  0  0  0  0  0  0  0  0  0
    8.8017    2.3377   22.4051 H   0  0  0  0  0  0  0  0  0  0  0  0
    9.6235    4.2386   17.9836 H   0  0  0  0  0  0  0  0  0  0  0  0
   12.0797    4.4540   17.0727 H   0  0  0  0  0  0  0  0  0  0  0  0
   12.0564    2.7009   21.2498 H   0  0  0  0  0  0  0  0  0  0  0  0
    3.0276    2.4864   21.3989 H   0  0  0  0  0  0  0  0  0  0  0  0
    2.6275    1.7956   25.0029 H   0  0  0  0  0  0  0  0  0  0  0  0
    0.8837    2.6511   26.4846 H   0  0  0  0  0  0  0  0  0  0  0  0
   -0.9705    4.0622   25.5506 H   0  0  0  0  0  0  0  0  0  0  0  0
   -1.1423    4.7111   20.8717 H   0  0  0  0  0  0  0  0  0  0  0  0
   -0.0649    5.9544   21.5297 H   0  0  0  0  0  0  0  0  0  0  0  0
  1  2  2  0
  2  3  1  0
  3  4  1  0
  4  5  1  0
  5  6  1  0
  5  7  1  0
  7  8  1  0
  8  9  2  0
  9 10  1  0
 10 11  1  0
  2 12  1  0
 12 13  2  0
 12 14  1  0
 14 15  1  0
 15 16  2  0
 16 17  1  0
 17 18  2  0
 18 19  1  0
 19 20  2  0
 20 21  1  0
 21 22  1  0
 22 23  1  0
 11  7  2  0
 20 15  1  0
 23 19  1  0
  3 24  1  0
  4 25  1  0
  4 26  1  0
  5 27  1  0
  6 28  1  0
  8 29  1  0
  9 30  1  0
 11 31  1  0
 14 32  1  0
 16 33  1  0
 17 34  1  0
 18 35  1  0
 22 36  1  0
 22 37  1  0
M  END
>  <Energy>  (554) 
268.74092995184776

>  <compound_id>  (554) 
73550

>  <target_id>  (554) 
1

>  <reference_id>  (554) 
66

>  <inspiration_ids>  (554) 
[13, 66]

>  <energy_score>  (554) 
118.08448025652342

>  <distance_score>  (554) 
6.229661499166922

>  <path>  (554) 
/opt/xchem-fragalysis-2/maxwin/BulkDock/SCRATCH/511017/C73550-P66/C73550-P66.minimised.mol

>  <scratch_subdir>  (554) 
/opt/xchem-fragalysis-2/maxwin/BulkDock/SCRATCH/511017/C73550-P66

>  <fragmenstein_runtime>  (554) 
5.8624162673950195

>  <fragmenstein_outcome>  (554) 
too moved

>  <fragmenstein_mode>  (554) 
expansion

>  <fragmenstein_error>  (554) 


$$$$
C73553-P13
     RDKit          3D

 38 40  0  0  0  0  0  0  0  0999 V2000
    2.8395   -3.4224   27.3292 O   0  0  0  0  0  0  0  0  0  0  0  0
    3.3160   -2.2956   27.4137 C   0  0  0  0  0  0  0  0  0  0  0  0
    4.3569   -1.7137   26.4642 C   0  0  0  0  0  0  0  0  0  0  0  0
    4.5675   -2.5388   25.1695 C   0  0  0  0  0  0  0  0  0  0  0  0
    4.0788   -1.8368   23.8277 C   0  0  0  0  0  0  0  0  0  0  0  0
    4.9961   -1.8392   22.7081 N   0  0  0  0  0  0  0  0  0  0  0  0
    5.2895   -0.6089   21.3355 C   0  0  0  0  0  0  0  0  0  0  0  0
    4.5360    0.3511   21.2722 O   0  0  0  0  0  0  0  0  0  0  0  0
    6.7790   -0.3812   19.9668 C   0  0  0  0  0  0  0  0  0  0  0  0
    6.4749    0.0378   18.2451 C   0  0  0  0  0  0  0  0  0  0  0  0
    7.3345    0.7288   17.4407 C   0  0  0  0  0  0  0  0  0  0  0  0
    8.3905    1.4688   18.4479 S   0  0  0  0  0  0  0  0  0  0  0  0
    8.0361    0.3592   19.7449 C   0  0  0  0  0  0  0  0  0  0  0  0
    3.0304   -1.4340   28.4651 O   0  0  0  0  0  0  0  0  0  0  0  0
    2.0521   -0.4822   28.1438 C   0  0  0  0  0  0  0  0  0  0  0  0
    2.4679    0.8469   27.9522 C   0  0  0  0  0  0  0  0  0  0  0  0
    1.5294    1.8373   27.6533 C   0  0  0  0  0  0  0  0  0  0  0  0
    0.2033    1.4652   27.5840 C   0  0  0  0  0  0  0  0  0  0  0  0
   -0.2047    0.1727   27.8252 C   0  0  0  0  0  0  0  0  0  0  0  0
    0.6982   -0.8327   28.1140 C   0  0  0  0  0  0  0  0  0  0  0  0
   -1.5555    0.0393   27.7325 O   0  0  0  0  0  0  0  0  0  0  0  0
   -1.9384    1.3663   27.3132 C   0  0  0  0  0  0  0  0  0  0  0  0
   -0.8300    2.2896   27.2686 O   0  0  0  0  0  0  0  0  0  0  0  0
    5.3003   -1.7045   27.0241 H   0  0  0  0  0  0  0  0  0  0  0  0
    4.1030   -0.6781   26.2287 H   0  0  0  0  0  0  0  0  0  0  0  0
    4.1133   -3.5299   25.2649 H   0  0  0  0  0  0  0  0  0  0  0  0
    5.6369   -2.7076   25.0876 H   0  0  0  0  0  0  0  0  0  0  0  0
    4.0608   -0.8109   24.1756 H   0  0  0  0  0  0  0  0  0  0  0  0
    3.1641   -2.2253   23.3961 H   0  0  0  0  0  0  0  0  0  0  0  0
    5.6403   -2.6257   22.5786 H   0  0  0  0  0  0  0  0  0  0  0  0
    5.6048   -0.3706   17.7275 H   0  0  0  0  0  0  0  0  0  0  0  0
    7.2759    0.9225   16.3860 H   0  0  0  0  0  0  0  0  0  0  0  0
    8.8058    0.6217   20.4514 H   0  0  0  0  0  0  0  0  0  0  0  0
    3.5202    1.1076   28.0252 H   0  0  0  0  0  0  0  0  0  0  0  0
    1.8283    2.8644   27.4762 H   0  0  0  0  0  0  0  0  0  0  0  0
    0.3628   -1.8485   28.2889 H   0  0  0  0  0  0  0  0  0  0  0  0
   -2.6799    1.7557   28.0147 H   0  0  0  0  0  0  0  0  0  0  0  0
   -2.3905    1.3059   26.3163 H   0  0  0  0  0  0  0  0  0  0  0  0
  1  2  2  0
  2  3  1  0
  3  4  1  0
  4  5  1  0
  5  6  1  0
  6  7  1  0
  7  8  2  0
  7  9  1  0
  9 10  1  0
 10 11  2  0
 11 12  1  0
 12 13  1  0
  2 14  1  0
 14 15  1  0
 15 16  2  0
 16 17  1  0
 17 18  2  0
 18 19  1  0
 19 20  2  0
 19 21  1  0
 21 22  1  0
 22 23  1  0
 13  9  2  0
 20 15  1  0
 23 18  1  0
  3 24  1  0
  3 25  1  0
  4 26  1  0
  4 27  1  0
  5 28  1  0
  5 29  1  0
  6 30  1  0
 10 31  1  0
 11 32  1  0
 13 33  1  0
 16 34  1  0
 17 35  1  0
 20 36  1  0
 22 37  1  0
 22 38  1  0
M  END
>  <Energy>  (555) 
298.89200553743439

>  <compound_id>  (555) 
73553

>  <target_id>  (555) 
1

>  <reference_id>  (555) 
13

>  <inspiration_ids>  (555) 
[13, 66]

>  <energy_score>  (555) 
235.11176588294938

>  <distance_score>  (555) 
5.856181848242804

>  <path>  (555) 
/opt/xchem-fragalysis-2/maxwin/BulkDock/SCRATCH/511017/C73553-P13/C73553-P13.minimised.mol

>  <scratch_subdir>  (555) 
/opt/xchem-fragalysis-2/maxwin/BulkDock/SCRATCH/511017/C73553-P13

>  <fragmenstein_runtime>  (555) 
5.946369647979736

>  <fragmenstein_outcome>  (555) 
too moved

>  <fragmenstein_mode>  (555) 
expansion

>  <fragmenstein_error>  (555) 


$$$$
C73553-P66
     RDKit          3D

 38 40  0  0  0  0  0  0  0  0999 V2000
    6.1839   -0.9857   26.3979 O   0  0  0  0  0  0  0  0  0  0  0  0
    5.0054   -1.1554   26.1014 C   0  0  0  0  0  0  0  0  0  0  0  0
    4.4096   -1.0544   24.6892 C   0  0  0  0  0  0  0  0  0  0  0  0
    5.1939   -1.7005   23.3840 C   0  0  0  0  0  0  0  0  0  0  0  0
    5.9177   -1.2102   21.6107 C   0  0  0  0  0  0  0  0  0  0  0  0
    6.6349   -0.0646   20.2571 N   0  0  0  0  0  0  0  0  0  0  0  0
    7.5443    1.3393   20.3545 C   0  0  0  0  0  0  0  0  0  0  0  0
    8.0387    1.8979   21.3225 O   0  0  0  0  0  0  0  0  0  0  0  0
    7.6466    2.0484   19.0542 C   0  0  0  0  0  0  0  0  0  0  0  0
    8.1220    3.4334   18.9652 C   0  0  0  0  0  0  0  0  0  0  0  0
    7.9874    3.9783   17.7097 C   0  0  0  0  0  0  0  0  0  0  0  0
    7.1975    2.9177   16.6411 S   0  0  0  0  0  0  0  0  0  0  0  0
    7.0770    1.6852   17.8272 C   0  0  0  0  0  0  0  0  0  0  0  0
    4.0355   -1.3915   27.0966 O   0  0  0  0  0  0  0  0  0  0  0  0
    2.9376   -0.5116   27.2648 C   0  0  0  0  0  0  0  0  0  0  0  0
    3.1125    0.8819   27.2038 C   0  0  0  0  0  0  0  0  0  0  0  0
    2.0189    1.7358   27.3919 C   0  0  0  0  0  0  0  0  0  0  0  0
    0.7905    1.1645   27.6541 C   0  0  0  0  0  0  0  0  0  0  0  0
    0.6333   -0.1992   27.7604 C   0  0  0  0  0  0  0  0  0  0  0  0
    1.6936   -1.0696   27.5817 C   0  0  0  0  0  0  0  0  0  0  0  0
   -0.6587   -0.5457   28.0174 O   0  0  0  0  0  0  0  0  0  0  0  0
   -1.3020    0.7457   27.9935 C   0  0  0  0  0  0  0  0  0  0  0  0
   -0.3796    1.8391   27.8161 O   0  0  0  0  0  0  0  0  0  0  0  0
    4.1675   -0.0002   24.5987 H   0  0  0  0  0  0  0  0  0  0  0  0
    3.4643   -1.6112   24.7628 H   0  0  0  0  0  0  0  0  0  0  0  0
    4.3172   -2.2500   23.1093 H   0  0  0  0  0  0  0  0  0  0  0  0
    5.8908   -2.3809   23.8486 H   0  0  0  0  0  0  0  0  0  0  0  0
    5.8508   -2.2087   21.1180 H   0  0  0  0  0  0  0  0  0  0  0  0
    4.9760   -0.7019   21.5426 H   0  0  0  0  0  0  0  0  0  0  0  0
    6.4531   -0.2888   19.2916 H   0  0  0  0  0  0  0  0  0  0  0  0
    8.5557    3.9628   19.8060 H   0  0  0  0  0  0  0  0  0  0  0  0
    8.2886    4.9650   17.3864 H   0  0  0  0  0  0  0  0  0  0  0  0
    6.6100    0.7506   17.5609 H   0  0  0  0  0  0  0  0  0  0  0  0
    4.0957    1.3036   27.0136 H   0  0  0  0  0  0  0  0  0  0  0  0
    2.1314    2.8123   27.3266 H   0  0  0  0  0  0  0  0  0  0  0  0
    1.5584   -2.1419   27.6439 H   0  0  0  0  0  0  0  0  0  0  0  0
   -1.8366    0.8877   28.9396 H   0  0  0  0  0  0  0  0  0  0  0  0
   -2.0296    0.7608   27.1733 H   0  0  0  0  0  0  0  0  0  0  0  0
  1  2  2  0
  2  3  1  0
  3  4  1  0
  4  5  1  0
  5  6  1  0
  6  7  1  0
  7  8  2  0
  7  9  1  0
  9 10  1  0
 10 11  2  0
 11 12  1  0
 12 13  1  0
  2 14  1  0
 14 15  1  0
 15 16  2  0
 16 17  1  0
 17 18  2  0
 18 19  1  0
 19 20  2  0
 19 21  1  0
 21 22  1  0
 22 23  1  0
 13  9  2  0
 20 15  1  0
 23 18  1  0
  3 24  1  0
  3 25  1  0
  4 26  1  0
  4 27  1  0
  5 28  1  0
  5 29  1  0
  6 30  1  0
 10 31  1  0
 11 32  1  0
 13 33  1  0
 16 34  1  0
 17 35  1  0
 20 36  1  0
 22 37  1  0
 22 38  1  0
M  END
>  <Energy>  (556) 
240.36682000950165

>  <compound_id>  (556) 
73553

>  <target_id>  (556) 
1

>  <reference_id>  (556) 
66

>  <inspiration_ids>  (556) 
[13, 66]

>  <energy_score>  (556) 
176.58658035502907

>  <distance_score>  (556) 
6.8054869067571

>  <path>  (556) 
/opt/xchem-fragalysis-2/maxwin/BulkDock/SCRATCH/511017/C73553-P66/C73553-P66.minimised.mol

>  <scratch_subdir>  (556) 
/opt/xchem-fragalysis-2/maxwin/BulkDock/SCRATCH/511017/C73553-P66

>  <fragmenstein_runtime>  (556) 
8.554870367050171

>  <fragmenstein_outcome>  (556) 
too moved

>  <fragmenstein_mode>  (556) 
expansion

>  <fragmenstein_error>  (556) 


$$$$
C67821-P13
     RDKit          3D

 45 47  0  0  0  0  0  0  0  0999 V2000
    7.2707    6.7352   21.7945 C   0  0  0  0  0  0  0  0  0  0  0  0
    6.1972    6.0448   21.0116 N   0  0  0  0  0  0  0  0  0  0  0  0
    4.7179    6.5571   21.3582 C   0  0  0  0  0  0  0  0  0  0  0  0
    4.6440    8.0884   21.6618 C   0  0  0  0  0  0  0  0  0  0  0  0
    5.2368    8.6068   22.9136 N   0  0  0  0  0  0  0  0  0  0  0  0
    4.5076    8.1838   24.1163 C   0  0  0  0  0  0  0  0  0  0  0  0
    4.7359    6.7229   24.5061 C   0  0  0  0  0  0  0  0  0  0  0  0
    3.8340    5.7920   23.7481 C   0  0  0  0  0  0  0  0  0  0  0  0
    2.9397    5.0057   24.5231 C   0  0  0  0  0  0  0  0  0  0  0  0
    1.9507    4.2342   23.9289 C   0  0  0  0  0  0  0  0  0  0  0  0
    1.8392    4.2510   22.5502 C   0  0  0  0  0  0  0  0  0  0  0  0
    2.7474    4.9902   21.7765 C   0  0  0  0  0  0  0  0  0  0  0  0
    3.8025    5.7447   22.3364 C   0  0  0  0  0  0  0  0  0  0  0  0
    6.5929    6.0465   19.2953 S   0  0  0  0  0  0  0  0  0  0  0  0
    5.4372    5.5613   18.5735 O   0  0  0  0  0  0  0  0  0  0  0  0
    7.0730    7.3864   19.0084 O   0  0  0  0  0  0  0  0  0  0  0  0
    8.0546    4.8628   19.0621 C   0  0  0  0  0  0  0  0  0  0  0  0
    7.7176    3.6442   18.1873 C   0  0  0  0  0  0  0  0  0  0  0  0
    8.7489    3.1090   17.2064 C   0  0  0  0  0  0  0  0  0  0  0  0
    9.5222    3.7793   16.2766 C   0  0  0  0  0  0  0  0  0  0  0  0
   10.2067    2.8960   15.3816 C   0  0  0  0  0  0  0  0  0  0  0  0
    9.9395    1.5730   15.6470 C   0  0  0  0  0  0  0  0  0  0  0  0
    8.9089    1.3988   16.9951 S   0  0  0  0  0  0  0  0  0  0  0  0
    7.3468    7.7967   21.5502 H   0  0  0  0  0  0  0  0  0  0  0  0
    7.1134    6.6108   22.8632 H   0  0  0  0  0  0  0  0  0  0  0  0
    8.2384    6.2697   21.5829 H   0  0  0  0  0  0  0  0  0  0  0  0
    4.1927    6.4777   20.3972 H   0  0  0  0  0  0  0  0  0  0  0  0
    5.1481    8.6116   20.8394 H   0  0  0  0  0  0  0  0  0  0  0  0
    3.5950    8.4115   21.6161 H   0  0  0  0  0  0  0  0  0  0  0  0
    5.2003    9.6263   22.8657 H   0  0  0  0  0  0  0  0  0  0  0  0
    3.4404    8.4259   24.0355 H   0  0  0  0  0  0  0  0  0  0  0  0
    4.8974    8.7991   24.9369 H   0  0  0  0  0  0  0  0  0  0  0  0
    5.7781    6.4160   24.3968 H   0  0  0  0  0  0  0  0  0  0  0  0
    4.5327    6.6398   25.5822 H   0  0  0  0  0  0  0  0  0  0  0  0
    2.9906    5.0277   25.6102 H   0  0  0  0  0  0  0  0  0  0  0  0
    1.2610    3.6572   24.5353 H   0  0  0  0  0  0  0  0  0  0  0  0
    1.0623    3.6859   22.0445 H   0  0  0  0  0  0  0  0  0  0  0  0
    2.6405    4.9377   20.6923 H   0  0  0  0  0  0  0  0  0  0  0  0
    8.8443    5.4782   18.6192 H   0  0  0  0  0  0  0  0  0  0  0  0
    8.3820    4.5563   20.0584 H   0  0  0  0  0  0  0  0  0  0  0  0
    6.8372    3.8598   17.5729 H   0  0  0  0  0  0  0  0  0  0  0  0
    7.4433    2.8356   18.8714 H   0  0  0  0  0  0  0  0  0  0  0  0
    9.5625    4.8590   16.2050 H   0  0  0  0  0  0  0  0  0  0  0  0
   10.8387    3.2225   14.5660 H   0  0  0  0  0  0  0  0  0  0  0  0
   10.2928    0.7032   15.1090 H   0  0  0  0  0  0  0  0  0  0  0  0
  1  2  1  0
  2  3  1  0
  3  4  1  0
  4  5  1  0
  5  6  1  0
  6  7  1  0
  7  8  1  0
  8  9  2  0
  9 10  1  0
 10 11  2  0
 11 12  1  0
 12 13  2  0
  2 14  1  0
 14 15  2  0
 14 16  2  0
 14 17  1  0
 17 18  1  0
 18 19  1  0
 19 20  2  0
 20 21  1  0
 21 22  2  0
 22 23  1  0
 13  3  1  0
 23 19  1  0
 13  8  1  0
  1 24  1  0
  1 25  1  0
  1 26  1  0
  3 27  1  0
  4 28  1  0
  4 29  1  0
  5 30  1  0
  6 31  1  0
  6 32  1  0
  7 33  1  0
  7 34  1  0
  9 35  1  0
 10 36  1  0
 11 37  1  0
 12 38  1  0
 17 39  1  0
 17 40  1  0
 18 41  1  0
 18 42  1  0
 20 43  1  0
 21 44  1  0
 22 45  1  0
M  END
>  <Energy>  (557) 
30.479434022737376

>  <compound_id>  (557) 
67821

>  <target_id>  (557) 
1

>  <reference_id>  (557) 
13

>  <inspiration_ids>  (557) 
[13, 66]

>  <energy_score>  (557) 
-61.26631710424044

>  <distance_score>  (557) 
7.823496911913259

>  <path>  (557) 
/opt/xchem-fragalysis-2/maxwin/BulkDock/SCRATCH/511017/C67821-P13/C67821-P13.minimised.mol

>  <scratch_subdir>  (557) 
/opt/xchem-fragalysis-2/maxwin/BulkDock/SCRATCH/511017/C67821-P13

>  <fragmenstein_runtime>  (557) 
12.435431718826294

>  <fragmenstein_outcome>  (557) 
too moved

>  <fragmenstein_mode>  (557) 
expansion

>  <fragmenstein_error>  (557) 


$$$$
C67821-P66
     RDKit          3D

 45 47  0  0  0  0  0  0  0  0999 V2000
    7.6154    4.1509   25.8925 C   0  0  0  0  0  0  0  0  0  0  0  0
    7.7765    2.7268   26.2481 N   0  0  0  0  0  0  0  0  0  0  0  0
    7.0346    2.2949   27.5400 C   0  0  0  0  0  0  0  0  0  0  0  0
    7.1766    3.3685   28.6840 C   0  0  0  0  0  0  0  0  0  0  0  0
    6.2672    3.2220   29.8292 N   0  0  0  0  0  0  0  0  0  0  0  0
    4.9478    3.8390   29.6066 C   0  0  0  0  0  0  0  0  0  0  0  0
    4.3824    3.7895   28.1808 C   0  0  0  0  0  0  0  0  0  0  0  0
    4.3989    2.3953   27.6195 C   0  0  0  0  0  0  0  0  0  0  0  0
    3.1618    1.7282   27.4827 C   0  0  0  0  0  0  0  0  0  0  0  0
    3.1051    0.4024   27.0667 C   0  0  0  0  0  0  0  0  0  0  0  0
    4.2794   -0.2682   26.7641 C   0  0  0  0  0  0  0  0  0  0  0  0
    5.5095    0.3845   26.8933 C   0  0  0  0  0  0  0  0  0  0  0  0
    5.6085    1.7264   27.3164 C   0  0  0  0  0  0  0  0  0  0  0  0
    9.3612    2.0882   26.0365 S   0  0  0  0  0  0  0  0  0  0  0  0
   10.2097    2.8024   26.9689 O   0  0  0  0  0  0  0  0  0  0  0  0
    9.2451    0.6481   26.0959 O   0  0  0  0  0  0  0  0  0  0  0  0
    9.8695    2.5596   24.3360 C   0  0  0  0  0  0  0  0  0  0  0  0
   11.0427    1.7184   23.8085 C   0  0  0  0  0  0  0  0  0  0  0  0
   11.5470    2.1703   22.4513 C   0  0  0  0  0  0  0  0  0  0  0  0
   10.8714    2.7751   21.4056 C   0  0  0  0  0  0  0  0  0  0  0  0
   11.7264    3.1015   20.3087 C   0  0  0  0  0  0  0  0  0  0  0  0
   13.0212    2.6915   20.5278 C   0  0  0  0  0  0  0  0  0  0  0  0
   13.1983    1.9123   22.0403 S   0  0  0  0  0  0  0  0  0  0  0  0
    6.5773    4.4652   26.0193 H   0  0  0  0  0  0  0  0  0  0  0  0
    8.2676    4.7917   26.4918 H   0  0  0  0  0  0  0  0  0  0  0  0
    7.8500    4.3098   24.8365 H   0  0  0  0  0  0  0  0  0  0  0  0
    7.5888    1.4308   27.9383 H   0  0  0  0  0  0  0  0  0  0  0  0
    8.2046    3.2908   29.0622 H   0  0  0  0  0  0  0  0  0  0  0  0
    7.1001    4.3958   28.3161 H   0  0  0  0  0  0  0  0  0  0  0  0
    6.6885    3.6272   30.6639 H   0  0  0  0  0  0  0  0  0  0  0  0
    4.2432    3.3547   30.2933 H   0  0  0  0  0  0  0  0  0  0  0  0
    5.0022    4.8919   29.9100 H   0  0  0  0  0  0  0  0  0  0  0  0
    3.3593    4.1864   28.1982 H   0  0  0  0  0  0  0  0  0  0  0  0
    4.9329    4.4595   27.5130 H   0  0  0  0  0  0  0  0  0  0  0  0
    2.2320    2.2359   27.7279 H   0  0  0  0  0  0  0  0  0  0  0  0
    2.1545   -0.1136   26.9800 H   0  0  0  0  0  0  0  0  0  0  0  0
    4.2524   -1.3019   26.4229 H   0  0  0  0  0  0  0  0  0  0  0  0
    6.4147   -0.1831   26.6723 H   0  0  0  0  0  0  0  0  0  0  0  0
    8.9990    2.4494   23.6903 H   0  0  0  0  0  0  0  0  0  0  0  0
   10.1386    3.6206   24.3777 H   0  0  0  0  0  0  0  0  0  0  0  0
   11.8587    1.7653   24.5408 H   0  0  0  0  0  0  0  0  0  0  0  0
   10.7479    0.6672   23.7402 H   0  0  0  0  0  0  0  0  0  0  0  0
    9.8104    2.9950   21.4169 H   0  0  0  0  0  0  0  0  0  0  0  0
   11.3948    3.5914   19.4011 H   0  0  0  0  0  0  0  0  0  0  0  0
   13.8718    2.7964   19.8690 H   0  0  0  0  0  0  0  0  0  0  0  0
  1  2  1  0
  2  3  1  0
  3  4  1  0
  4  5  1  0
  5  6  1  0
  6  7  1  0
  7  8  1  0
  8  9  2  0
  9 10  1  0
 10 11  2  0
 11 12  1  0
 12 13  2  0
  2 14  1  0
 14 15  2  0
 14 16  2  0
 14 17  1  0
 17 18  1  0
 18 19  1  0
 19 20  2  0
 20 21  1  0
 21 22  2  0
 22 23  1  0
 13  3  1  0
 23 19  1  0
 13  8  1  0
  1 24  1  0
  1 25  1  0
  1 26  1  0
  3 27  1  0
  4 28  1  0
  4 29  1  0
  5 30  1  0
  6 31  1  0
  6 32  1  0
  7 33  1  0
  7 34  1  0
  9 35  1  0
 10 36  1  0
 11 37  1  0
 12 38  1  0
 17 39  1  0
 17 40  1  0
 18 41  1  0
 18 42  1  0
 20 43  1  0
 21 44  1  0
 22 45  1  0
M  END
>  <Energy>  (558) 
17.351104596635395

>  <compound_id>  (558) 
67821

>  <target_id>  (558) 
1

>  <reference_id>  (558) 
66

>  <inspiration_ids>  (558) 
[13, 66]

>  <energy_score>  (558) 
-74.39464653034628

>  <distance_score>  (558) 
7.134633646547877

>  <path>  (558) 
/opt/xchem-fragalysis-2/maxwin/BulkDock/SCRATCH/511017/C67821-P66/C67821-P66.minimised.mol

>  <scratch_subdir>  (558) 
/opt/xchem-fragalysis-2/maxwin/BulkDock/SCRATCH/511017/C67821-P66

>  <fragmenstein_runtime>  (558) 
15.282448053359985

>  <fragmenstein_outcome>  (558) 
too moved

>  <fragmenstein_mode>  (558) 
expansion

>  <fragmenstein_error>  (558) 


$$$$
C74332-P13
     RDKit          3D

 38 40  0  0  0  0  0  0  0  0999 V2000
    7.7710    3.3548   27.6993 C   0  0  0  0  0  0  0  0  0  0  0  0
    7.5024    2.2271   26.7716 N   0  0  0  0  0  0  0  0  0  0  0  0
    6.2556    1.5126   27.1099 C   0  0  0  0  0  0  0  0  0  0  0  0
    6.4102    0.4778   27.9578 N   0  0  0  0  0  0  0  0  0  0  0  0
    5.3025   -0.1737   28.3759 C   0  0  0  0  0  0  0  0  0  0  0  0
    4.0104    0.2072   28.0688 C   0  0  0  0  0  0  0  0  0  0  0  0
    3.8270    1.3424   27.2839 C   0  0  0  0  0  0  0  0  0  0  0  0
    2.5258    1.8051   27.0133 C   0  0  0  0  0  0  0  0  0  0  0  0
    2.3240    2.9502   26.2471 C   0  0  0  0  0  0  0  0  0  0  0  0
    3.4165    3.6363   25.7355 C   0  0  0  0  0  0  0  0  0  0  0  0
    4.7158    3.1854   26.0015 C   0  0  0  0  0  0  0  0  0  0  0  0
    4.9642    2.0316   26.7819 C   0  0  0  0  0  0  0  0  0  0  0  0
    8.9003    1.2008   26.5580 S   0  0  0  0  0  0  0  0  0  0  0  0
    9.6013    1.1082   27.8243 O   0  0  0  0  0  0  0  0  0  0  0  0
    8.4880    0.0137   25.8405 O   0  0  0  0  0  0  0  0  0  0  0  0
    9.9812    2.1736   25.4249 C   0  0  0  0  0  0  0  0  0  0  0  0
   10.9192    1.2676   24.6159 C   0  0  0  0  0  0  0  0  0  0  0  0
   11.7372    1.9573   23.5398 C   0  0  0  0  0  0  0  0  0  0  0  0
   11.3539    2.8838   22.5867 C   0  0  0  0  0  0  0  0  0  0  0  0
   12.4093    3.2313   21.6893 C   0  0  0  0  0  0  0  0  0  0  0  0
   13.5658    2.5391   21.9646 C   0  0  0  0  0  0  0  0  0  0  0  0
   13.3836    1.4997   23.3092 S   0  0  0  0  0  0  0  0  0  0  0  0
    7.8700    3.0068   28.7324 H   0  0  0  0  0  0  0  0  0  0  0  0
    6.9598    4.0881   27.6580 H   0  0  0  0  0  0  0  0  0  0  0  0
    8.6835    3.8820   27.4054 H   0  0  0  0  0  0  0  0  0  0  0  0
    5.4957   -1.0414   29.0013 H   0  0  0  0  0  0  0  0  0  0  0  0
    3.1736   -0.3625   28.4581 H   0  0  0  0  0  0  0  0  0  0  0  0
    1.6577    1.2775   27.4046 H   0  0  0  0  0  0  0  0  0  0  0  0
    1.3150    3.3040   26.0498 H   0  0  0  0  0  0  0  0  0  0  0  0
    3.2635    4.5264   25.1299 H   0  0  0  0  0  0  0  0  0  0  0  0
    5.5547    3.7450   25.5973 H   0  0  0  0  0  0  0  0  0  0  0  0
    9.3248    2.7522   24.7810 H   0  0  0  0  0  0  0  0  0  0  0  0
   10.5474    2.8752   26.0460 H   0  0  0  0  0  0  0  0  0  0  0  0
   10.3122    0.5121   24.1237 H   0  0  0  0  0  0  0  0  0  0  0  0
   11.5743    0.7314   25.3135 H   0  0  0  0  0  0  0  0  0  0  0  0
   10.3586    3.2976   22.5170 H   0  0  0  0  0  0  0  0  0  0  0  0
   12.3127    3.9360   20.8718 H   0  0  0  0  0  0  0  0  0  0  0  0
   14.5126    2.5934   21.4459 H   0  0  0  0  0  0  0  0  0  0  0  0
  1  2  1  0
  2  3  1  0
  3  4  2  0
  4  5  1  0
  5  6  2  0
  6  7  1  0
  7  8  2  0
  8  9  1  0
  9 10  2  0
 10 11  1  0
 11 12  2  0
  2 13  1  0
 13 14  2  0
 13 15  2  0
 13 16  1  0
 16 17  1  0
 17 18  1  0
 18 19  2  0
 19 20  1  0
 20 21  2  0
 21 22  1  0
 12  3  1  0
 22 18  1  0
 12  7  1  0
  1 23  1  0
  1 24  1  0
  1 25  1  0
  5 26  1  0
  6 27  1  0
  8 28  1  0
  9 29  1  0
 10 30  1  0
 11 31  1  0
 16 32  1  0
 16 33  1  0
 17 34  1  0
 17 35  1  0
 19 36  1  0
 20 37  1  0
 21 38  1  0
M  END
>  <Energy>  (559) 
-32.523842033625812

>  <compound_id>  (559) 
74332

>  <target_id>  (559) 
1

>  <reference_id>  (559) 
13

>  <inspiration_ids>  (559) 
[13, 66]

>  <energy_score>  (559) 
-60.844170389253634

>  <distance_score>  (559) 
7.3366284921601315

>  <path>  (559) 
/opt/xchem-fragalysis-2/maxwin/BulkDock/SCRATCH/511017/C74332-P13/C74332-P13.minimised.mol

>  <scratch_subdir>  (559) 
/opt/xchem-fragalysis-2/maxwin/BulkDock/SCRATCH/511017/C74332-P13

>  <fragmenstein_runtime>  (559) 
9.421543598175049

>  <fragmenstein_outcome>  (559) 
too moved

>  <fragmenstein_mode>  (559) 
expansion

>  <fragmenstein_error>  (559) 


$$$$
C74332-P66
     RDKit          3D

 38 40  0  0  0  0  0  0  0  0999 V2000
    6.8453    3.9142   26.4417 C   0  0  0  0  0  0  0  0  0  0  0  0
    7.0313    2.6158   27.1126 N   0  0  0  0  0  0  0  0  0  0  0  0
    5.9028    1.7059   27.2251 C   0  0  0  0  0  0  0  0  0  0  0  0
    6.1823    0.4629   26.8096 N   0  0  0  0  0  0  0  0  0  0  0  0
    5.1652   -0.4285   26.7467 C   0  0  0  0  0  0  0  0  0  0  0  0
    3.8443   -0.1357   27.0166 C   0  0  0  0  0  0  0  0  0  0  0  0
    3.5284    1.1523   27.4315 C   0  0  0  0  0  0  0  0  0  0  0  0
    2.1842    1.4801   27.6922 C   0  0  0  0  0  0  0  0  0  0  0  0
    1.8336    2.7555   28.1212 C   0  0  0  0  0  0  0  0  0  0  0  0
    2.8241    3.7071   28.3128 C   0  0  0  0  0  0  0  0  0  0  0  0
    4.1660    3.3886   28.0591 C   0  0  0  0  0  0  0  0  0  0  0  0
    4.5673    2.1137   27.5793 C   0  0  0  0  0  0  0  0  0  0  0  0
    8.6486    2.0640   27.2194 S   0  0  0  0  0  0  0  0  0  0  0  0
    9.4315    3.2497   27.5355 O   0  0  0  0  0  0  0  0  0  0  0  0
    8.7453    0.9130   28.0914 O   0  0  0  0  0  0  0  0  0  0  0  0
    9.1373    1.5814   25.5213 C   0  0  0  0  0  0  0  0  0  0  0  0
   10.6483    1.3475   25.3821 C   0  0  0  0  0  0  0  0  0  0  0  0
   11.2371    1.4041   23.9812 C   0  0  0  0  0  0  0  0  0  0  0  0
   12.2756    0.6353   23.4854 C   0  0  0  0  0  0  0  0  0  0  0  0
   12.7468    1.0852   22.2178 C   0  0  0  0  0  0  0  0  0  0  0  0
   12.0198    2.1544   21.7533 C   0  0  0  0  0  0  0  0  0  0  0  0
   10.7749    2.5934   22.8349 S   0  0  0  0  0  0  0  0  0  0  0  0
    7.6302    4.1097   25.7058 H   0  0  0  0  0  0  0  0  0  0  0  0
    6.8787    4.7172   27.1842 H   0  0  0  0  0  0  0  0  0  0  0  0
    5.8987    3.9753   25.8997 H   0  0  0  0  0  0  0  0  0  0  0  0
    5.4535   -1.4221   26.4193 H   0  0  0  0  0  0  0  0  0  0  0  0
    3.0928   -0.9087   26.8867 H   0  0  0  0  0  0  0  0  0  0  0  0
    1.4014    0.7351   27.5614 H   0  0  0  0  0  0  0  0  0  0  0  0
    0.7933    3.0011   28.3180 H   0  0  0  0  0  0  0  0  0  0  0  0
    2.5618    4.6998   28.6715 H   0  0  0  0  0  0  0  0  0  0  0  0
    4.9127    4.1519   28.2619 H   0  0  0  0  0  0  0  0  0  0  0  0
    8.8214    2.4029   24.8808 H   0  0  0  0  0  0  0  0  0  0  0  0
    8.5813    0.6696   25.3031 H   0  0  0  0  0  0  0  0  0  0  0  0
   11.1928    2.0922   25.9768 H   0  0  0  0  0  0  0  0  0  0  0  0
   10.8893    0.3761   25.8330 H   0  0  0  0  0  0  0  0  0  0  0  0
   12.7206   -0.1877   24.0340 H   0  0  0  0  0  0  0  0  0  0  0  0
   13.5786    0.6389   21.6877 H   0  0  0  0  0  0  0  0  0  0  0  0
   12.1523    2.6990   20.8289 H   0  0  0  0  0  0  0  0  0  0  0  0
  1  2  1  0
  2  3  1  0
  3  4  2  0
  4  5  1  0
  5  6  2  0
  6  7  1  0
  7  8  2  0
  8  9  1  0
  9 10  2  0
 10 11  1  0
 11 12  2  0
  2 13  1  0
 13 14  2  0
 13 15  2  0
 13 16  1  0
 16 17  1  0
 17 18  1  0
 18 19  2  0
 19 20  1  0
 20 21  2  0
 21 22  1  0
 12  3  1  0
 22 18  1  0
 12  7  1  0
  1 23  1  0
  1 24  1  0
  1 25  1  0
  5 26  1  0
  6 27  1  0
  8 28  1  0
  9 29  1  0
 10 30  1  0
 11 31  1  0
 16 32  1  0
 16 33  1  0
 17 34  1  0
 17 35  1  0
 19 36  1  0
 20 37  1  0
 21 38  1  0
M  END
>  <Energy>  (560) 
-31.311287111553028

>  <compound_id>  (560) 
74332

>  <target_id>  (560) 
1

>  <reference_id>  (560) 
66

>  <inspiration_ids>  (560) 
[13, 66]

>  <energy_score>  (560) 
-59.63161546718044

>  <distance_score>  (560) 
7.404554562451826

>  <path>  (560) 
/opt/xchem-fragalysis-2/maxwin/BulkDock/SCRATCH/511017/C74332-P66/C74332-P66.minimised.mol

>  <scratch_subdir>  (560) 
/opt/xchem-fragalysis-2/maxwin/BulkDock/SCRATCH/511017/C74332-P66

>  <fragmenstein_runtime>  (560) 
8.791517496109009

>  <fragmenstein_outcome>  (560) 
too moved

>  <fragmenstein_mode>  (560) 
expansion

>  <fragmenstein_error>  (560) 


$$$$
C74337-P13
     RDKit          3D

 36 37  0  0  0  0  0  0  0  0999 V2000
    4.2303    1.0231   21.5843 C   0  0  0  0  0  0  0  0  0  0  0  0
    5.0867   -0.5442   21.4289 N   0  0  0  0  0  0  0  0  0  0  0  0
    4.8283   -0.8762   23.3202 C   0  0  0  0  0  0  0  0  0  0  0  0
    5.0223   -2.0859   24.0108 C   0  0  0  0  0  0  0  0  0  0  0  0
    4.8607   -2.3296   25.4030 C   0  0  0  0  0  0  0  0  0  0  0  0
    4.4935   -1.4111   26.3014 N   0  0  0  0  0  0  0  0  0  0  0  0
    4.4204   -0.1738   25.7705 C   0  0  0  0  0  0  0  0  0  0  0  0
    4.1074    0.9085   26.7763 C   0  0  0  0  0  0  0  0  0  0  0  0
    3.9638    0.3358   28.0879 N   0  0  0  0  0  0  0  0  0  0  0  0
    4.0208    2.0438   26.4066 O   0  0  0  0  0  0  0  0  0  0  0  0
    4.6090    0.1220   24.4099 C   0  0  0  0  0  0  0  0  0  0  0  0
    6.8119    0.0567   19.8494 S   0  0  0  0  0  0  0  0  0  0  0  0
    6.5056   -0.0613   18.4380 O   0  0  0  0  0  0  0  0  0  0  0  0
    7.9393   -0.7820   20.0319 O   0  0  0  0  0  0  0  0  0  0  0  0
    7.7766    1.7242   19.6430 C   0  0  0  0  0  0  0  0  0  0  0  0
    8.2532    2.1780   18.1919 C   0  0  0  0  0  0  0  0  0  0  0  0
    8.8747    1.3663   17.0522 C   0  0  0  0  0  0  0  0  0  0  0  0
    8.4758    0.2387   16.3566 C   0  0  0  0  0  0  0  0  0  0  0  0
    9.4096   -0.2267   15.3925 C   0  0  0  0  0  0  0  0  0  0  0  0
   10.3687    0.7167   15.1396 C   0  0  0  0  0  0  0  0  0  0  0  0
   10.0463    2.1434   16.0145 S   0  0  0  0  0  0  0  0  0  0  0  0
    3.5884    1.6389   22.3433 H   0  0  0  0  0  0  0  0  0  0  0  0
    4.7353    1.4047   22.5036 H   0  0  0  0  0  0  0  0  0  0  0  0
    3.2456    1.0941   21.1642 H   0  0  0  0  0  0  0  0  0  0  0  0
    5.6745   -2.8116   23.5268 H   0  0  0  0  0  0  0  0  0  0  0  0
    5.1296   -3.3060   25.8044 H   0  0  0  0  0  0  0  0  0  0  0  0
    4.2247   -0.6757   28.0476 H   0  0  0  0  0  0  0  0  0  0  0  0
    3.9908   -0.7061   28.0086 H   0  0  0  0  0  0  0  0  0  0  0  0
    4.4472    1.1791   24.2339 H   0  0  0  0  0  0  0  0  0  0  0  0
    7.2338    2.6036   19.9589 H   0  0  0  0  0  0  0  0  0  0  0  0
    8.6851    1.6113   20.2359 H   0  0  0  0  0  0  0  0  0  0  0  0
    8.9903    2.9635   18.4246 H   0  0  0  0  0  0  0  0  0  0  0  0
    7.4395    2.7631   17.7473 H   0  0  0  0  0  0  0  0  0  0  0  0
    7.5294   -0.2532   16.4976 H   0  0  0  0  0  0  0  0  0  0  0  0
    9.3074   -1.1468   14.8328 H   0  0  0  0  0  0  0  0  0  0  0  0
   11.1571    0.6760   14.4012 H   0  0  0  0  0  0  0  0  0  0  0  0
  1  2  1  0
  2  3  1  0
  3  4  2  0
  4  5  1  0
  5  6  2  0
  6  7  1  0
  7  8  1  0
  8  9  1  0
  8 10  2  0
  7 11  2  0
  2 12  1  0
 12 13  2  0
 12 14  2  0
 12 15  1  0
 15 16  1  0
 16 17  1  0
 17 18  2  0
 18 19  1  0
 19 20  2  0
 20 21  1  0
 11  3  1  0
 21 17  1  0
  1 22  1  0
  1 23  1  0
  1 24  1  0
  4 25  1  0
  5 26  1  0
  9 27  1  0
  9 28  1  0
 11 29  1  0
 15 30  1  0
 15 31  1  0
 16 32  1  0
 16 33  1  0
 18 34  1  0
 19 35  1  0
 20 36  1  0
M  END
>  <Energy>  (561) 
595.25260562966162

>  <compound_id>  (561) 
74337

>  <target_id>  (561) 
1

>  <reference_id>  (561) 
13

>  <inspiration_ids>  (561) 
[13, 66]

>  <energy_score>  (561) 
565.280103661195

>  <distance_score>  (561) 
6.471493991558402

>  <path>  (561) 
/opt/xchem-fragalysis-2/maxwin/BulkDock/SCRATCH/511017/C74337-P13/C74337-P13.minimised.mol

>  <scratch_subdir>  (561) 
/opt/xchem-fragalysis-2/maxwin/BulkDock/SCRATCH/511017/C74337-P13

>  <fragmenstein_runtime>  (561) 
8.722480535507202

>  <fragmenstein_outcome>  (561) 
too moved

>  <fragmenstein_mode>  (561) 
expansion

>  <fragmenstein_error>  (561) 


$$$$
C74337-P66
     RDKit          3D

 36 37  0  0  0  0  0  0  0  0999 V2000
   10.1347    3.0000   23.9967 C   0  0  0  0  0  0  0  0  0  0  0  0
   10.1736    1.6624   24.6431 N   0  0  0  0  0  0  0  0  0  0  0  0
    9.1989    1.4372   25.7350 C   0  0  0  0  0  0  0  0  0  0  0  0
    8.7003    0.1571   26.0053 C   0  0  0  0  0  0  0  0  0  0  0  0
    7.6152    0.0007   26.8691 C   0  0  0  0  0  0  0  0  0  0  0  0
    7.0173    1.0221   27.5175 N   0  0  0  0  0  0  0  0  0  0  0  0
    7.5763    2.2503   27.2961 C   0  0  0  0  0  0  0  0  0  0  0  0
    6.8831    3.3667   28.0336 C   0  0  0  0  0  0  0  0  0  0  0  0
    5.7921    2.8413   28.8108 N   0  0  0  0  0  0  0  0  0  0  0  0
    7.2774    4.4891   27.9008 O   0  0  0  0  0  0  0  0  0  0  0  0
    8.6425    2.5044   26.4429 C   0  0  0  0  0  0  0  0  0  0  0  0
   11.7599    0.9919   24.7978 S   0  0  0  0  0  0  0  0  0  0  0  0
   11.6268   -0.3760   25.2507 O   0  0  0  0  0  0  0  0  0  0  0  0
   12.5438    1.9473   25.5552 O   0  0  0  0  0  0  0  0  0  0  0  0
   12.4047    0.9747   23.0811 C   0  0  0  0  0  0  0  0  0  0  0  0
   13.7806    0.2975   23.0144 C   0  0  0  0  0  0  0  0  0  0  0  0
   14.4301    0.3075   21.6428 C   0  0  0  0  0  0  0  0  0  0  0  0
   14.6481    1.3678   20.7799 C   0  0  0  0  0  0  0  0  0  0  0  0
   15.3182    0.9754   19.5785 C   0  0  0  0  0  0  0  0  0  0  0  0
   15.6095   -0.3699   19.5653 C   0  0  0  0  0  0  0  0  0  0  0  0
   15.1175   -1.1417   21.0087 S   0  0  0  0  0  0  0  0  0  0  0  0
   10.6896    3.7398   24.5806 H   0  0  0  0  0  0  0  0  0  0  0  0
    9.1022    3.3445   23.8763 H   0  0  0  0  0  0  0  0  0  0  0  0
   10.5437    2.9499   22.9852 H   0  0  0  0  0  0  0  0  0  0  0  0
    9.1061   -0.7201   25.5124 H   0  0  0  0  0  0  0  0  0  0  0  0
    7.1921   -0.9881   27.0427 H   0  0  0  0  0  0  0  0  0  0  0  0
    5.6742    1.8249   28.5887 H   0  0  0  0  0  0  0  0  0  0  0  0
    5.8213    1.7955   28.7752 H   0  0  0  0  0  0  0  0  0  0  0  0
    8.9924    3.5231   26.3227 H   0  0  0  0  0  0  0  0  0  0  0  0
   11.6621    0.4690   22.4643 H   0  0  0  0  0  0  0  0  0  0  0  0
   12.4898    2.0171   22.7627 H   0  0  0  0  0  0  0  0  0  0  0  0
   13.6981   -0.7277   23.3944 H   0  0  0  0  0  0  0  0  0  0  0  0
   14.4636    0.8121   23.7034 H   0  0  0  0  0  0  0  0  0  0  0  0
   14.3411    2.3845   20.9936 H   0  0  0  0  0  0  0  0  0  0  0  0
   15.5751    1.6491   18.7703 H   0  0  0  0  0  0  0  0  0  0  0  0
   16.1107   -0.9347   18.7913 H   0  0  0  0  0  0  0  0  0  0  0  0
  1  2  1  0
  2  3  1  0
  3  4  2  0
  4  5  1  0
  5  6  2  0
  6  7  1  0
  7  8  1  0
  8  9  1  0
  8 10  2  0
  7 11  2  0
  2 12  1  0
 12 13  2  0
 12 14  2  0
 12 15  1  0
 15 16  1  0
 16 17  1  0
 17 18  2  0
 18 19  1  0
 19 20  2  0
 20 21  1  0
 11  3  1  0
 21 17  1  0
  1 22  1  0
  1 23  1  0
  1 24  1  0
  4 25  1  0
  5 26  1  0
  9 27  1  0
  9 28  1  0
 11 29  1  0
 15 30  1  0
 15 31  1  0
 16 32  1  0
 16 33  1  0
 18 34  1  0
 19 35  1  0
 20 36  1  0
M  END
>  <Energy>  (562) 
145.27475374237463

>  <compound_id>  (562) 
74337

>  <target_id>  (562) 
1

>  <reference_id>  (562) 
66

>  <inspiration_ids>  (562) 
[13, 66]

>  <energy_score>  (562) 
115.30225177391452

>  <distance_score>  (562) 
7.88912802718327

>  <path>  (562) 
/opt/xchem-fragalysis-2/maxwin/BulkDock/SCRATCH/511017/C74337-P66/C74337-P66.minimised.mol

>  <scratch_subdir>  (562) 
/opt/xchem-fragalysis-2/maxwin/BulkDock/SCRATCH/511017/C74337-P66

>  <fragmenstein_runtime>  (562) 
9.293976306915283

>  <fragmenstein_outcome>  (562) 
too moved

>  <fragmenstein_mode>  (562) 
expansion

>  <fragmenstein_error>  (562) 


$$$$
C74348-P13
     RDKit          3D

 42 44  0  0  0  0  0  0  0  0999 V2000
    6.5393   -0.1744   26.9510 O   0  0  0  0  0  0  0  0  0  0  0  0
    7.2601   -1.1592   26.9165 C   0  0  0  0  0  0  0  0  0  0  0  0
    8.5382   -1.1396   26.3737 N   0  0  0  0  0  0  0  0  0  0  0  0
    9.3142   -2.2388   26.8852 C   0  0  0  0  0  0  0  0  0  0  0  0
   10.3323   -2.7781   25.9114 C   0  0  0  0  0  0  0  0  0  0  0  0
   11.1821   -2.0591   25.0825 C   0  0  0  0  0  0  0  0  0  0  0  0
   12.0757   -2.8788   24.3265 C   0  0  0  0  0  0  0  0  0  0  0  0
   11.9203   -4.2078   24.6235 C   0  0  0  0  0  0  0  0  0  0  0  0
   10.7420   -4.4467   25.8384 S   0  0  0  0  0  0  0  0  0  0  0  0
    8.1741   -3.1286   27.4191 C   0  0  0  0  0  0  0  0  0  0  0  0
    8.3034   -4.2392   27.9237 O   0  0  0  0  0  0  0  0  0  0  0  0
    6.9974   -2.3874   27.4481 N   0  0  0  0  0  0  0  0  0  0  0  0
    5.8359   -2.7266   28.3300 C   0  0  0  0  0  0  0  0  0  0  0  0
    4.4435   -2.2601   27.8931 C   0  0  0  0  0  0  0  0  0  0  0  0
    3.1594   -2.8735   29.0197 S   0  0  0  0  0  0  0  0  0  0  0  0
    3.1076   -4.3169   28.9430 O   0  0  0  0  0  0  0  0  0  0  0  0
    3.2371   -2.2007   30.2965 O   0  0  0  0  0  0  0  0  0  0  0  0
    1.7613   -2.3554   28.2726 N   0  0  0  0  0  0  0  0  0  0  0  0
    1.3865   -0.9437   28.3352 C   0  0  0  0  0  0  0  0  0  0  0  0
    0.1951   -0.7305   29.2544 C   0  0  0  0  0  0  0  0  0  0  0  0
   -1.2130   -1.0360   28.6770 C   0  0  0  0  0  0  0  0  0  0  0  0
   -1.2988    0.4453   28.2599 C   0  0  0  0  0  0  0  0  0  0  0  0
   -0.2541    0.7441   29.3529 C   0  0  0  0  0  0  0  0  0  0  0  0
    8.9384   -0.2393   26.1544 H   0  0  0  0  0  0  0  0  0  0  0  0
    9.8486   -1.8594   27.7668 H   0  0  0  0  0  0  0  0  0  0  0  0
   11.1612   -0.9785   25.0040 H   0  0  0  0  0  0  0  0  0  0  0  0
   12.7948   -2.5026   23.6091 H   0  0  0  0  0  0  0  0  0  0  0  0
   12.4642   -5.0469   24.2126 H   0  0  0  0  0  0  0  0  0  0  0  0
    6.0690   -2.2943   29.3110 H   0  0  0  0  0  0  0  0  0  0  0  0
    5.8387   -3.8145   28.4633 H   0  0  0  0  0  0  0  0  0  0  0  0
    4.3755   -1.1696   27.8875 H   0  0  0  0  0  0  0  0  0  0  0  0
    4.2109   -2.6447   26.8953 H   0  0  0  0  0  0  0  0  0  0  0  0
    1.0158   -3.0467   28.1867 H   0  0  0  0  0  0  0  0  0  0  0  0
    1.1676   -0.6005   27.3207 H   0  0  0  0  0  0  0  0  0  0  0  0
    2.2330   -0.3377   28.6769 H   0  0  0  0  0  0  0  0  0  0  0  0
    0.3699   -1.1816   30.2395 H   0  0  0  0  0  0  0  0  0  0  0  0
   -1.2620   -1.7617   27.8630 H   0  0  0  0  0  0  0  0  0  0  0  0
   -1.9437   -1.3173   29.4440 H   0  0  0  0  0  0  0  0  0  0  0  0
   -0.9449    0.6405   27.2413 H   0  0  0  0  0  0  0  0  0  0  0  0
   -2.2677    0.9292   28.3922 H   0  0  0  0  0  0  0  0  0  0  0  0
    0.4879    1.5067   29.1016 H   0  0  0  0  0  0  0  0  0  0  0  0
   -0.6820    0.9804   30.3325 H   0  0  0  0  0  0  0  0  0  0  0  0
  1  2  2  0
  2  3  1  0
  3  4  1  0
  4  5  1  0
  5  6  2  0
  6  7  1  0
  7  8  2  0
  8  9  1  0
  4 10  1  0
 10 11  2  0
 10 12  1  0
 12 13  1  0
 13 14  1  0
 14 15  1  0
 15 16  2  0
 15 17  2  0
 15 18  1  0
 18 19  1  0
 19 20  1  0
 20 21  1  0
 21 22  1  0
 22 23  1  0
 12  2  1  0
 23 20  1  0
  9  5  1  0
  3 24  1  0
  4 25  1  0
  6 26  1  0
  7 27  1  0
  8 28  1  0
 13 29  1  0
 13 30  1  0
 14 31  1  0
 14 32  1  0
 18 33  1  0
 19 34  1  0
 19 35  1  0
 20 36  1  0
 21 37  1  0
 21 38  1  0
 22 39  1  0
 22 40  1  0
 23 41  1  0
 23 42  1  0
M  END
>  <Energy>  (563) 
-114.69326076515507

>  <compound_id>  (563) 
74348

>  <target_id>  (563) 
1

>  <reference_id>  (563) 
13

>  <inspiration_ids>  (563) 
[13, 66]

>  <energy_score>  (563) 
-58.80312958039124

>  <distance_score>  (563) 
7.226952606940145

>  <path>  (563) 
/opt/xchem-fragalysis-2/maxwin/BulkDock/SCRATCH/511017/C74348-P13/C74348-P13.minimised.mol

>  <scratch_subdir>  (563) 
/opt/xchem-fragalysis-2/maxwin/BulkDock/SCRATCH/511017/C74348-P13

>  <fragmenstein_runtime>  (563) 
8.475929498672485

>  <fragmenstein_outcome>  (563) 
too moved

>  <fragmenstein_mode>  (563) 
expansion

>  <fragmenstein_error>  (563) 


$$$$
C74348-P66
     RDKit          3D

 42 44  0  0  0  0  0  0  0  0999 V2000
    7.4778   -3.2529   28.4114 O   0  0  0  0  0  0  0  0  0  0  0  0
    7.7244   -2.2205   27.8072 C   0  0  0  0  0  0  0  0  0  0  0  0
    8.9632   -1.9332   27.2591 N   0  0  0  0  0  0  0  0  0  0  0  0
    9.1137   -0.5282   27.0336 C   0  0  0  0  0  0  0  0  0  0  0  0
   10.0232   -0.1719   25.8837 C   0  0  0  0  0  0  0  0  0  0  0  0
   10.0206    0.9450   25.0609 C   0  0  0  0  0  0  0  0  0  0  0  0
   11.1057    0.9744   24.1282 C   0  0  0  0  0  0  0  0  0  0  0  0
   11.9625   -0.0849   24.3098 C   0  0  0  0  0  0  0  0  0  0  0  0
   11.4655   -1.0955   25.5979 S   0  0  0  0  0  0  0  0  0  0  0  0
    7.6180   -0.1357   27.0100 C   0  0  0  0  0  0  0  0  0  0  0  0
    7.1659    0.9529   26.6739 O   0  0  0  0  0  0  0  0  0  0  0  0
    6.8891   -1.1547   27.6069 N   0  0  0  0  0  0  0  0  0  0  0  0
    5.4153   -1.2082   27.8757 C   0  0  0  0  0  0  0  0  0  0  0  0
    4.9952   -0.9669   29.3291 C   0  0  0  0  0  0  0  0  0  0  0  0
    3.3513   -1.6186   29.7369 S   0  0  0  0  0  0  0  0  0  0  0  0
    3.4047   -3.0631   29.7888 O   0  0  0  0  0  0  0  0  0  0  0  0
    2.8129   -0.8695   30.8534 O   0  0  0  0  0  0  0  0  0  0  0  0
    2.4136   -1.1886   28.4153 N   0  0  0  0  0  0  0  0  0  0  0  0
    1.0557   -1.7797   28.3534 C   0  0  0  0  0  0  0  0  0  0  0  0
    0.0231   -0.8750   29.0069 C   0  0  0  0  0  0  0  0  0  0  0  0
   -1.4625   -1.2213   28.7346 C   0  0  0  0  0  0  0  0  0  0  0  0
   -1.7365    0.2927   28.6533 C   0  0  0  0  0  0  0  0  0  0  0  0
   -0.2496    0.4817   28.3054 C   0  0  0  0  0  0  0  0  0  0  0  0
    9.7355   -2.5681   27.4047 H   0  0  0  0  0  0  0  0  0  0  0  0
    9.5335   -0.0976   27.9529 H   0  0  0  0  0  0  0  0  0  0  0  0
    9.2548    1.7116   25.1124 H   0  0  0  0  0  0  0  0  0  0  0  0
   11.2534    1.7415   23.3783 H   0  0  0  0  0  0  0  0  0  0  0  0
   12.8610   -0.3188   23.7543 H   0  0  0  0  0  0  0  0  0  0  0  0
    5.0696   -2.1999   27.5840 H   0  0  0  0  0  0  0  0  0  0  0  0
    4.9316   -0.4758   27.2203 H   0  0  0  0  0  0  0  0  0  0  0  0
    4.9868    0.1054   29.5484 H   0  0  0  0  0  0  0  0  0  0  0  0
    5.6882   -1.4506   30.0255 H   0  0  0  0  0  0  0  0  0  0  0  0
    2.3963   -0.1822   28.2478 H   0  0  0  0  0  0  0  0  0  0  0  0
    0.8253   -1.9153   27.2953 H   0  0  0  0  0  0  0  0  0  0  0  0
    1.0373   -2.7794   28.7993 H   0  0  0  0  0  0  0  0  0  0  0  0
    0.2108   -0.7521   30.0828 H   0  0  0  0  0  0  0  0  0  0  0  0
   -1.6457   -1.7477   27.7939 H   0  0  0  0  0  0  0  0  0  0  0  0
   -1.9773   -1.7519   29.5400 H   0  0  0  0  0  0  0  0  0  0  0  0
   -2.4398    0.6069   27.8792 H   0  0  0  0  0  0  0  0  0  0  0  0
   -2.0278    0.7398   29.6102 H   0  0  0  0  0  0  0  0  0  0  0  0
   -0.0529    0.4865   27.2279 H   0  0  0  0  0  0  0  0  0  0  0  0
    0.2327    1.3528   28.7566 H   0  0  0  0  0  0  0  0  0  0  0  0
  1  2  2  0
  2  3  1  0
  3  4  1  0
  4  5  1  0
  5  6  2  0
  6  7  1  0
  7  8  2  0
  8  9  1  0
  4 10  1  0
 10 11  2  0
 10 12  1  0
 12 13  1  0
 13 14  1  0
 14 15  1  0
 15 16  2  0
 15 17  2  0
 15 18  1  0
 18 19  1  0
 19 20  1  0
 20 21  1  0
 21 22  1  0
 22 23  1  0
 12  2  1  0
 23 20  1  0
  9  5  1  0
  3 24  1  0
  4 25  1  0
  6 26  1  0
  7 27  1  0
  8 28  1  0
 13 29  1  0
 13 30  1  0
 14 31  1  0
 14 32  1  0
 18 33  1  0
 19 34  1  0
 19 35  1  0
 20 36  1  0
 21 37  1  0
 21 38  1  0
 22 39  1  0
 22 40  1  0
 23 41  1  0
 23 42  1  0
M  END
>  <Energy>  (564) 
-110.29073966860169

>  <compound_id>  (564) 
74348

>  <target_id>  (564) 
1

>  <reference_id>  (564) 
66

>  <inspiration_ids>  (564) 
[13, 66]

>  <energy_score>  (564) 
-54.40060848383828

>  <distance_score>  (564) 
7.307456884957192

>  <path>  (564) 
/opt/xchem-fragalysis-2/maxwin/BulkDock/SCRATCH/511017/C74348-P66/C74348-P66.minimised.mol

>  <scratch_subdir>  (564) 
/opt/xchem-fragalysis-2/maxwin/BulkDock/SCRATCH/511017/C74348-P66

>  <fragmenstein_runtime>  (564) 
8.948245525360107

>  <fragmenstein_outcome>  (564) 
too moved

>  <fragmenstein_mode>  (564) 
expansion

>  <fragmenstein_error>  (564) 


$$$$
C73564-P13
     RDKit          3D

 41 42  0  0  0  0  0  0  0  0999 V2000
    9.2326    1.6288   17.1212 C   0  0  0  0  0  0  0  0  0  0  0  0
    8.5449    0.6619   18.0366 N   0  0  0  0  0  0  0  0  0  0  0  0
    7.9094    1.4499   19.5056 S   0  0  0  0  0  0  0  0  0  0  0  0
    7.3808    2.6770   18.9620 O   0  0  0  0  0  0  0  0  0  0  0  0
    8.9739    1.5559   20.4712 O   0  0  0  0  0  0  0  0  0  0  0  0
    6.6784    0.0304   20.0634 C   0  0  0  0  0  0  0  0  0  0  0  0
    5.2396   -0.6487   21.4147 C   0  0  0  0  0  0  0  0  0  0  0  0
    4.9112   -0.4268   23.3207 N   0  0  0  0  0  0  0  0  0  0  0  0
    4.7617   -1.3201   24.3839 C   0  0  0  0  0  0  0  0  0  0  0  0
    4.9986   -2.5146   24.4484 O   0  0  0  0  0  0  0  0  0  0  0  0
    4.5172   -0.6424   25.7131 C   0  0  0  0  0  0  0  0  0  0  0  0
    4.1401    0.6571   25.3398 N   0  0  0  0  0  0  0  0  0  0  0  0
    4.0087    1.7021   26.3656 C   0  0  0  0  0  0  0  0  0  0  0  0
    2.7221    2.5788   26.4627 C   0  0  0  0  0  0  0  0  0  0  0  0
    2.4795    3.3926   25.1879 C   0  0  0  0  0  0  0  0  0  0  0  0
    1.4496    1.9225   27.0053 C   0  0  0  0  0  0  0  0  0  0  0  0
    0.1556    2.5701   27.0153 C   0  0  0  0  0  0  0  0  0  0  0  0
   -0.8488    1.7916   27.5457 C   0  0  0  0  0  0  0  0  0  0  0  0
   -0.2583    0.2882   28.0875 S   0  0  0  0  0  0  0  0  0  0  0  0
    1.3395    0.6780   27.6025 C   0  0  0  0  0  0  0  0  0  0  0  0
    4.5045    0.8791   23.9966 C   0  0  0  0  0  0  0  0  0  0  0  0
    4.3617    1.9853   23.4759 O   0  0  0  0  0  0  0  0  0  0  0  0
   10.0569    1.1265   16.6151 H   0  0  0  0  0  0  0  0  0  0  0  0
    9.5867    2.5076   17.6523 H   0  0  0  0  0  0  0  0  0  0  0  0
    8.5257    1.9619   16.3539 H   0  0  0  0  0  0  0  0  0  0  0  0
    7.6711    0.4505   17.5185 H   0  0  0  0  0  0  0  0  0  0  0  0
    7.3668   -0.7702   20.0826 H   0  0  0  0  0  0  0  0  0  0  0  0
    6.4179    0.0940   18.9848 H   0  0  0  0  0  0  0  0  0  0  0  0
    5.3323   -1.7288   21.1240 H   0  0  0  0  0  0  0  0  0  0  0  0
    4.4917    0.1694   21.3089 H   0  0  0  0  0  0  0  0  0  0  0  0
    5.4579   -0.6107   26.2728 H   0  0  0  0  0  0  0  0  0  0  0  0
    3.7336   -1.1252   26.2960 H   0  0  0  0  0  0  0  0  0  0  0  0
    4.8610    2.3770   26.2081 H   0  0  0  0  0  0  0  0  0  0  0  0
    4.1773    1.2279   27.3410 H   0  0  0  0  0  0  0  0  0  0  0  0
    2.9692    3.3247   27.2356 H   0  0  0  0  0  0  0  0  0  0  0  0
    2.1008    2.7707   24.3738 H   0  0  0  0  0  0  0  0  0  0  0  0
    1.7466    4.1892   25.3539 H   0  0  0  0  0  0  0  0  0  0  0  0
    3.3997    3.8868   24.8595 H   0  0  0  0  0  0  0  0  0  0  0  0
   -0.0364    3.5685   26.6391 H   0  0  0  0  0  0  0  0  0  0  0  0
   -1.8967    2.0439   27.6499 H   0  0  0  0  0  0  0  0  0  0  0  0
    2.1175   -0.0501   27.7759 H   0  0  0  0  0  0  0  0  0  0  0  0
  1  2  1  0
  2  3  1  0
  3  4  2  0
  3  5  2  0
  3  6  1  0
  6  7  1  0
  7  8  1  0
  8  9  1  0
  9 10  2  0
  9 11  1  0
 11 12  1  0
 12 13  1  0
 13 14  1  0
 14 15  1  0
 14 16  1  0
 16 17  1  0
 17 18  2  0
 18 19  1  0
 19 20  1  0
 12 21  1  0
 21 22  2  0
 21  8  1  0
 20 16  2  0
  1 23  1  0
  1 24  1  0
  1 25  1  0
  2 26  1  0
  6 27  1  0
  6 28  1  0
  7 29  1  0
  7 30  1  0
 11 31  1  0
 11 32  1  0
 13 33  1  0
 13 34  1  0
 14 35  1  0
 15 36  1  0
 15 37  1  0
 15 38  1  0
 17 39  1  0
 18 40  1  0
 20 41  1  0
M  END
>  <Energy>  (565) 
150.63109615671522

>  <compound_id>  (565) 
73564

>  <target_id>  (565) 
1

>  <reference_id>  (565) 
13

>  <inspiration_ids>  (565) 
[13, 66]

>  <energy_score>  (565) 
214.61560114595227

>  <distance_score>  (565) 
6.023919525886977

>  <path>  (565) 
/opt/xchem-fragalysis-2/maxwin/BulkDock/SCRATCH/511017/C73564-P13/C73564-P13.minimised.mol

>  <scratch_subdir>  (565) 
/opt/xchem-fragalysis-2/maxwin/BulkDock/SCRATCH/511017/C73564-P13

>  <fragmenstein_runtime>  (565) 
17.653643131256104

>  <fragmenstein_outcome>  (565) 
too moved

>  <fragmenstein_mode>  (565) 
expansion

>  <fragmenstein_error>  (565) 


$$$$
C73564-P66
     RDKit          3D

 41 42  0  0  0  0  0  0  0  0999 V2000
   14.7826   -2.3540   17.1931 C   0  0  0  0  0  0  0  0  0  0  0  0
   14.3847   -2.8191   18.5415 N   0  0  0  0  0  0  0  0  0  0  0  0
   13.3099   -4.1713   18.5217 S   0  0  0  0  0  0  0  0  0  0  0  0
   12.4494   -3.9354   17.3868 O   0  0  0  0  0  0  0  0  0  0  0  0
   14.2581   -5.2629   18.5941 O   0  0  0  0  0  0  0  0  0  0  0  0
   12.5558   -4.0260   20.1610 C   0  0  0  0  0  0  0  0  0  0  0  0
   10.9574   -3.9729   20.8498 C   0  0  0  0  0  0  0  0  0  0  0  0
    8.8612   -3.5438   20.8634 N   0  0  0  0  0  0  0  0  0  0  0  0
    7.6888   -3.8865   21.1458 C   0  0  0  0  0  0  0  0  0  0  0  0
    6.6568   -3.0858   20.8135 O   0  0  0  0  0  0  0  0  0  0  0  0
    7.3597   -5.1483   22.6422 C   0  0  0  0  0  0  0  0  0  0  0  0
    6.6468   -3.6711   22.8339 N   0  0  0  0  0  0  0  0  0  0  0  0
    5.8716   -2.5000   24.1723 C   0  0  0  0  0  0  0  0  0  0  0  0
    6.5854   -1.6919   25.6892 C   0  0  0  0  0  0  0  0  0  0  0  0
    7.8085   -0.7292   25.8393 C   0  0  0  0  0  0  0  0  0  0  0  0
    5.3734   -1.1169   26.5510 C   0  0  0  0  0  0  0  0  0  0  0  0
    4.2097   -0.4338   26.0463 C   0  0  0  0  0  0  0  0  0  0  0  0
    3.3034   -0.0797   27.0215 C   0  0  0  0  0  0  0  0  0  0  0  0
    3.8121   -0.5877   28.5645 S   0  0  0  0  0  0  0  0  0  0  0  0
    5.2545   -1.2568   27.9254 C   0  0  0  0  0  0  0  0  0  0  0  0
    7.8174   -3.5716   22.3655 C   0  0  0  0  0  0  0  0  0  0  0  0
    7.6718   -3.5994   23.6957 O   0  0  0  0  0  0  0  0  0  0  0  0
   15.5556   -1.5877   17.3048 H   0  0  0  0  0  0  0  0  0  0  0  0
   13.9335   -1.9076   16.6702 H   0  0  0  0  0  0  0  0  0  0  0  0
   15.2057   -3.1756   16.6085 H   0  0  0  0  0  0  0  0  0  0  0  0
   15.2138   -3.1144   19.0654 H   0  0  0  0  0  0  0  0  0  0  0  0
   13.2210   -3.3472   20.7066 H   0  0  0  0  0  0  0  0  0  0  0  0
   12.9061   -4.9804   20.5989 H   0  0  0  0  0  0  0  0  0  0  0  0
   11.3587   -3.8469   21.8933 H   0  0  0  0  0  0  0  0  0  0  0  0
   10.8935   -5.1239   20.8193 H   0  0  0  0  0  0  0  0  0  0  0  0
    7.1059   -6.0271   22.0299 H   0  0  0  0  0  0  0  0  0  0  0  0
    6.6469   -5.5537   23.3621 H   0  0  0  0  0  0  0  0  0  0  0  0
    4.8506   -2.8017   24.5026 H   0  0  0  0  0  0  0  0  0  0  0  0
    5.5062   -1.7321   23.4965 H   0  0  0  0  0  0  0  0  0  0  0  0
    7.0824   -2.4804   26.2680 H   0  0  0  0  0  0  0  0  0  0  0  0
    8.1032   -0.7081   26.8994 H   0  0  0  0  0  0  0  0  0  0  0  0
    8.6966   -1.0788   25.3117 H   0  0  0  0  0  0  0  0  0  0  0  0
    7.6218    0.3210   25.6108 H   0  0  0  0  0  0  0  0  0  0  0  0
    4.0341   -0.2263   25.0011 H   0  0  0  0  0  0  0  0  0  0  0  0
    2.3629    0.4343   26.8938 H   0  0  0  0  0  0  0  0  0  0  0  0
    5.9527   -1.7492   28.5870 H   0  0  0  0  0  0  0  0  0  0  0  0
  1  2  1  0
  2  3  1  0
  3  4  2  0
  3  5  2  0
  3  6  1  0
  6  7  1  0
  7  8  1  0
  8  9  1  0
  9 10  2  0
  9 11  1  0
 11 12  1  0
 12 13  1  0
 13 14  1  0
 14 15  1  0
 14 16  1  0
 16 17  1  0
 17 18  2  0
 18 19  1  0
 19 20  1  0
 12 21  1  0
 21 22  2  0
 21  8  1  0
 20 16  2  0
  1 23  1  0
  1 24  1  0
  1 25  1  0
  2 26  1  0
  6 27  1  0
  6 28  1  0
  7 29  1  0
  7 30  1  0
 11 31  1  0
 11 32  1  0
 13 33  1  0
 13 34  1  0
 14 35  1  0
 15 36  1  0
 15 37  1  0
 15 38  1  0
 17 39  1  0
 18 40  1  0
 20 41  1  0
M  END
>  <Energy>  (566) 
974.69624515361511

>  <compound_id>  (566) 
73564

>  <target_id>  (566) 
1

>  <reference_id>  (566) 
66

>  <inspiration_ids>  (566) 
[13, 66]

>  <energy_score>  (566) 
1038.680750142854

>  <distance_score>  (566) 
6.242380860767005

>  <path>  (566) 
/opt/xchem-fragalysis-2/maxwin/BulkDock/SCRATCH/511017/C73564-P66/C73564-P66.minimised.mol

>  <scratch_subdir>  (566) 
/opt/xchem-fragalysis-2/maxwin/BulkDock/SCRATCH/511017/C73564-P66

>  <fragmenstein_runtime>  (566) 
16.905104160308838

>  <fragmenstein_outcome>  (566) 
too moved

>  <fragmenstein_mode>  (566) 
expansion

>  <fragmenstein_error>  (566) 


$$$$
C73585-P13
     RDKit          3D

 37 38  0  0  0  0  0  0  0  0999 V2000
    1.3108    3.2899   25.3247 C   0  0  0  0  0  0  0  0  0  0  0  0
    2.4812    2.4126   24.9784 N   0  0  0  0  0  0  0  0  0  0  0  0
    3.2192    1.9524   26.1286 C   0  0  0  0  0  0  0  0  0  0  0  0
    3.5419    2.8082   27.1873 C   0  0  0  0  0  0  0  0  0  0  0  0
    4.1384    2.3074   28.3470 C   0  0  0  0  0  0  0  0  0  0  0  0
    4.4241    0.9484   28.4521 C   0  0  0  0  0  0  0  0  0  0  0  0
    4.1315    0.1055   27.3806 C   0  0  0  0  0  0  0  0  0  0  0  0
    4.3887   -1.3484   27.5189 C   0  0  0  0  0  0  0  0  0  0  0  0
    3.1768   -2.1238   27.6119 N   0  0  0  0  0  0  0  0  0  0  0  0
    5.5352   -1.6880   27.5408 O   0  0  0  0  0  0  0  0  0  0  0  0
    3.5580    0.6043   26.2086 C   0  0  0  0  0  0  0  0  0  0  0  0
    3.3864    3.0674   23.6595 S   0  0  0  0  0  0  0  0  0  0  0  0
    2.3449    3.5766   22.7825 O   0  0  0  0  0  0  0  0  0  0  0  0
    4.2910    4.0142   24.2967 O   0  0  0  0  0  0  0  0  0  0  0  0
    4.4291    1.4842   22.8316 C   0  0  0  0  0  0  0  0  0  0  0  0
    5.0372    0.9650   20.9521 C   0  0  0  0  0  0  0  0  0  0  0  0
    6.7664    0.8107   19.8379 C   0  0  0  0  0  0  0  0  0  0  0  0
    7.5287    2.2234   19.3962 C   0  0  0  0  0  0  0  0  0  0  0  0
    8.4233    2.1859   18.3639 C   0  0  0  0  0  0  0  0  0  0  0  0
    8.5478    0.6027   17.8599 S   0  0  0  0  0  0  0  0  0  0  0  0
    7.7075    0.0207   19.2882 C   0  0  0  0  0  0  0  0  0  0  0  0
    0.5700    3.2645   24.5198 H   0  0  0  0  0  0  0  0  0  0  0  0
    0.8055    2.9158   26.2224 H   0  0  0  0  0  0  0  0  0  0  0  0
    1.6222    4.3239   25.5027 H   0  0  0  0  0  0  0  0  0  0  0  0
    3.3321    3.8735   27.1220 H   0  0  0  0  0  0  0  0  0  0  0  0
    4.3851    2.9824   29.1635 H   0  0  0  0  0  0  0  0  0  0  0  0
    4.8903    0.5530   29.3520 H   0  0  0  0  0  0  0  0  0  0  0  0
    2.3623   -1.5020   27.4380 H   0  0  0  0  0  0  0  0  0  0  0  0
    2.3650   -1.4778   27.6747 H   0  0  0  0  0  0  0  0  0  0  0  0
    3.3738   -0.0546   25.3694 H   0  0  0  0  0  0  0  0  0  0  0  0
    3.4576    1.7234   22.3281 H   0  0  0  0  0  0  0  0  0  0  0  0
    5.1391    2.1883   23.0954 H   0  0  0  0  0  0  0  0  0  0  0  0
    5.8261    1.8362   21.3042 H   0  0  0  0  0  0  0  0  0  0  0  0
    4.0168    1.0614   20.8526 H   0  0  0  0  0  0  0  0  0  0  0  0
    7.2138    3.1888   19.7777 H   0  0  0  0  0  0  0  0  0  0  0  0
    8.9229    3.0089   17.8730 H   0  0  0  0  0  0  0  0  0  0  0  0
    7.9495   -0.9033   19.6776 H   0  0  0  0  0  0  0  0  0  0  0  0
  1  2  1  0
  2  3  1  0
  3  4  2  0
  4  5  1  0
  5  6  2  0
  6  7  1  0
  7  8  1  0
  8  9  1  0
  8 10  2  0
  7 11  2  0
  2 12  1  0
 12 13  2  0
 12 14  2  0
 12 15  1  0
 15 16  1  0
 16 17  1  0
 17 18  1  0
 18 19  2  0
 19 20  1  0
 20 21  1  0
 11  3  1  0
 21 17  2  0
  1 22  1  0
  1 23  1  0
  1 24  1  0
  4 25  1  0
  5 26  1  0
  6 27  1  0
  9 28  1  0
  9 29  1  0
 11 30  1  0
 15 31  1  0
 15 32  1  0
 16 33  1  0
 16 34  1  0
 18 35  1  0
 19 36  1  0
 21 37  1  0
M  END
>  <Energy>  (567) 
522.82715337807758

>  <compound_id>  (567) 
73585

>  <target_id>  (567) 
1

>  <reference_id>  (567) 
13

>  <inspiration_ids>  (567) 
[13, 66]

>  <energy_score>  (567) 
497.67048004922594

>  <distance_score>  (567) 
6.091066350477302

>  <path>  (567) 
/opt/xchem-fragalysis-2/maxwin/BulkDock/SCRATCH/511017/C73585-P13/C73585-P13.minimised.mol

>  <scratch_subdir>  (567) 
/opt/xchem-fragalysis-2/maxwin/BulkDock/SCRATCH/511017/C73585-P13

>  <fragmenstein_runtime>  (567) 
6.6236138343811035

>  <fragmenstein_outcome>  (567) 
too moved

>  <fragmenstein_mode>  (567) 
expansion

>  <fragmenstein_error>  (567) 


$$$$
C73585-P66
     RDKit          3D

 37 38  0  0  0  0  0  0  0  0999 V2000
   -0.2250    0.3229   14.6397 C   0  0  0  0  0  0  0  0  0  0  0  0
    0.2907    0.4731   16.0272 N   0  0  0  0  0  0  0  0  0  0  0  0
    0.0150    1.7447   16.6940 C   0  0  0  0  0  0  0  0  0  0  0  0
    0.8263    2.1882   17.7323 C   0  0  0  0  0  0  0  0  0  0  0  0
    0.7144    3.4576   18.3213 C   0  0  0  0  0  0  0  0  0  0  0  0
   -0.2395    4.3417   17.8445 C   0  0  0  0  0  0  0  0  0  0  0  0
   -1.0831    3.9225   16.8074 C   0  0  0  0  0  0  0  0  0  0  0  0
   -2.0979    4.8458   16.2259 C   0  0  0  0  0  0  0  0  0  0  0  0
   -2.9875    5.4297   17.1971 N   0  0  0  0  0  0  0  0  0  0  0  0
   -2.0347    4.9904   15.0387 O   0  0  0  0  0  0  0  0  0  0  0  0
   -0.9618    2.6347   16.2460 C   0  0  0  0  0  0  0  0  0  0  0  0
    0.3583   -0.9834   16.9100 S   0  0  0  0  0  0  0  0  0  0  0  0
    0.8041   -0.6937   18.2533 O   0  0  0  0  0  0  0  0  0  0  0  0
   -0.9041   -1.6582   16.6887 O   0  0  0  0  0  0  0  0  0  0  0  0
    1.6685   -1.9549   16.0907 C   0  0  0  0  0  0  0  0  0  0  0  0
    2.8408   -2.3171   17.0250 C   0  0  0  0  0  0  0  0  0  0  0  0
    4.2354   -2.1028   16.5486 C   0  0  0  0  0  0  0  0  0  0  0  0
    4.6912   -2.6684   15.0167 C   0  0  0  0  0  0  0  0  0  0  0  0
    5.9414   -2.2292   14.4819 C   0  0  0  0  0  0  0  0  0  0  0  0
    7.1219   -1.0528   15.6495 S   0  0  0  0  0  0  0  0  0  0  0  0
    5.4835   -1.1593   17.2510 C   0  0  0  0  0  0  0  0  0  0  0  0
    0.0819    1.1779   14.0279 H   0  0  0  0  0  0  0  0  0  0  0  0
    0.1880   -0.5657   14.1552 H   0  0  0  0  0  0  0  0  0  0  0  0
   -1.3162    0.2403   14.6331 H   0  0  0  0  0  0  0  0  0  0  0  0
    1.5624    1.5120   18.1197 H   0  0  0  0  0  0  0  0  0  0  0  0
    1.3777    3.7366   19.1375 H   0  0  0  0  0  0  0  0  0  0  0  0
   -0.2953    5.3479   18.2507 H   0  0  0  0  0  0  0  0  0  0  0  0
   -2.6719    5.1628   18.1482 H   0  0  0  0  0  0  0  0  0  0  0  0
   -2.8232    4.9819   18.1186 H   0  0  0  0  0  0  0  0  0  0  0  0
   -1.6300    2.3769   15.4287 H   0  0  0  0  0  0  0  0  0  0  0  0
    1.1769   -2.8781   15.7598 H   0  0  0  0  0  0  0  0  0  0  0  0
    1.9502   -1.4296   15.1839 H   0  0  0  0  0  0  0  0  0  0  0  0
    2.7419   -3.3785   17.2719 H   0  0  0  0  0  0  0  0  0  0  0  0
    2.7764   -1.6995   17.9040 H   0  0  0  0  0  0  0  0  0  0  0  0
    3.9770   -3.2581   14.4529 H   0  0  0  0  0  0  0  0  0  0  0  0
    6.4041   -2.3018   13.5161 H   0  0  0  0  0  0  0  0  0  0  0  0
    5.9629   -0.8895   18.1608 H   0  0  0  0  0  0  0  0  0  0  0  0
  1  2  1  0
  2  3  1  0
  3  4  2  0
  4  5  1  0
  5  6  2  0
  6  7  1  0
  7  8  1  0
  8  9  1  0
  8 10  2  0
  7 11  2  0
  2 12  1  0
 12 13  2  0
 12 14  2  0
 12 15  1  0
 15 16  1  0
 16 17  1  0
 17 18  1  0
 18 19  2  0
 19 20  1  0
 20 21  1  0
 11  3  1  0
 21 17  2  0
  1 22  1  0
  1 23  1  0
  1 24  1  0
  4 25  1  0
  5 26  1  0
  6 27  1  0
  9 28  1  0
  9 29  1  0
 11 30  1  0
 15 31  1  0
 15 32  1  0
 16 33  1  0
 16 34  1  0
 18 35  1  0
 19 36  1  0
 21 37  1  0
M  END
>  <Energy>  (568) 
276.77276854942426

>  <compound_id>  (568) 
73585

>  <target_id>  (568) 
1

>  <reference_id>  (568) 
66

>  <inspiration_ids>  (568) 
[13, 66]

>  <energy_score>  (568) 
251.61609522057938

>  <distance_score>  (568) 
10.771582283249426

>  <path>  (568) 
/opt/xchem-fragalysis-2/maxwin/BulkDock/SCRATCH/511017/C73585-P66/C73585-P66.minimised.mol

>  <scratch_subdir>  (568) 
/opt/xchem-fragalysis-2/maxwin/BulkDock/SCRATCH/511017/C73585-P66

>  <fragmenstein_runtime>  (568) 
11.621628046035767

>  <fragmenstein_outcome>  (568) 
too moved

>  <fragmenstein_mode>  (568) 
expansion

>  <fragmenstein_error>  (568) 


$$$$
C29309-P52
     RDKit          3D

 39 41  0  0  0  0  0  0  0  0999 V2000
   -1.9033  -16.6883   26.5833 C   0  0  0  0  0  0  0  0  0  0  0  0
   -2.5567  -15.5637   27.1655 N   0  0  0  0  0  0  0  0  0  0  0  0
   -2.2554  -14.1968   26.8670 C   0  0  0  0  0  0  0  0  0  0  0  0
   -2.3620  -13.3819   25.1407 C   0  0  0  0  0  0  0  0  0  0  0  0
   -1.3184  -13.3610   23.7413 N   0  0  0  0  0  0  0  0  0  0  0  0
    0.2818  -12.7604   23.5177 C   0  0  0  0  0  0  0  0  0  0  0  0
    0.8020  -11.8362   24.8103 C   0  0  0  0  0  0  0  0  0  0  0  0
    1.3768  -11.7394   25.3975 N   0  0  0  0  0  0  0  0  0  0  0  0
    0.1914  -10.2458   25.3686 O   0  0  0  0  0  0  0  0  0  0  0  0
    1.9925  -12.2409   22.6397 C   0  0  0  0  0  0  0  0  0  0  0  0
    2.2854  -10.9624   22.2616 C   0  0  0  0  0  0  0  0  0  0  0  0
    3.2521  -10.5019   21.1469 C   0  0  0  0  0  0  0  0  0  0  0  0
    3.5897  -11.3427   20.0633 C   0  0  0  0  0  0  0  0  0  0  0  0
    2.8638  -12.4202   20.3687 C   0  0  0  0  0  0  0  0  0  0  0  0
    2.6157  -13.0607   21.8224 N   0  0  0  0  0  0  0  0  0  0  0  0
   -2.2024  -13.6374   28.0829 N   0  0  0  0  0  0  0  0  0  0  0  0
   -2.7694  -14.5219   29.0278 C   0  0  0  0  0  0  0  0  0  0  0  0
   -3.0981  -14.3728   30.3913 C   0  0  0  0  0  0  0  0  0  0  0  0
   -3.7752  -15.4120   31.0685 C   0  0  0  0  0  0  0  0  0  0  0  0
   -4.1165  -16.5933   30.4118 C   0  0  0  0  0  0  0  0  0  0  0  0
   -3.7796  -16.7704   29.0686 C   0  0  0  0  0  0  0  0  0  0  0  0
   -3.1167  -15.7075   28.4198 C   0  0  0  0  0  0  0  0  0  0  0  0
   -0.8475  -16.5143   26.7288 H   0  0  0  0  0  0  0  0  0  0  0  0
   -2.0900  -16.6846   25.5230 H   0  0  0  0  0  0  0  0  0  0  0  0
   -2.1852  -17.6326   27.0521 H   0  0  0  0  0  0  0  0  0  0  0  0
   -2.9667  -14.1387   24.6117 H   0  0  0  0  0  0  0  0  0  0  0  0
   -2.8316  -12.4223   25.1582 H   0  0  0  0  0  0  0  0  0  0  0  0
   -1.6310  -14.0854   23.0998 H   0  0  0  0  0  0  0  0  0  0  0  0
   -0.2556  -12.7218   22.5795 H   0  0  0  0  0  0  0  0  0  0  0  0
    2.2480  -12.1194   25.7867 H   0  0  0  0  0  0  0  0  0  0  0  0
    2.1437  -12.1971   25.8998 H   0  0  0  0  0  0  0  0  0  0  0  0
    1.6240  -10.3168   22.7579 H   0  0  0  0  0  0  0  0  0  0  0  0
    3.4790   -9.4326   20.9603 H   0  0  0  0  0  0  0  0  0  0  0  0
    4.1783  -11.2058   19.1675 H   0  0  0  0  0  0  0  0  0  0  0  0
    2.3173  -13.0329   19.6373 H   0  0  0  0  0  0  0  0  0  0  0  0
   -2.8602  -13.4421   30.8955 H   0  0  0  0  0  0  0  0  0  0  0  0
   -4.0428  -15.2779   32.1138 H   0  0  0  0  0  0  0  0  0  0  0  0
   -4.6451  -17.3806   30.9443 H   0  0  0  0  0  0  0  0  0  0  0  0
   -4.0340  -17.6860   28.5455 H   0  0  0  0  0  0  0  0  0  0  0  0
  1  2  1  0
  2  3  1  0
  3  4  1  0
  4  5  1  0
  5  6  1  0
  6  7  1  0
  7  8  1  0
  7  9  2  0
  6 10  1  0
 10 11  2  0
 11 12  1  0
 12 13  2  0
 13 14  1  0
 14 15  2  0
  3 16  2  0
 16 17  1  0
 17 18  2  0
 18 19  1  0
 19 20  2  0
 20 21  1  0
 21 22  2  0
 22  2  1  0
 15 10  1  0
 22 17  1  0
  1 23  1  0
  1 24  1  0
  1 25  1  0
  4 26  1  0
  4 27  1  0
  5 28  1  0
  6 29  1  0
  8 30  1  0
  8 31  1  0
 11 32  1  0
 12 33  1  0
 13 34  1  0
 14 35  1  0
 18 36  1  0
 19 37  1  0
 20 38  1  0
 21 39  1  0
M  END
>  <Energy>  (569) 
1196.3120288221812

>  <compound_id>  (569) 
29309

>  <target_id>  (569) 
1

>  <reference_id>  (569) 
52

>  <inspiration_ids>  (569) 
[52, 60]

>  <energy_score>  (569) 
1088.9034111360222

>  <distance_score>  (569) 
13.697808736973549

>  <path>  (569) 
/opt/xchem-fragalysis-2/maxwin/BulkDock/SCRATCH/511017/C29309-P52/C29309-P52.minimised.mol

>  <scratch_subdir>  (569) 
/opt/xchem-fragalysis-2/maxwin/BulkDock/SCRATCH/511017/C29309-P52

>  <fragmenstein_runtime>  (569) 
21.384506702423096

>  <fragmenstein_outcome>  (569) 
too moved

>  <fragmenstein_mode>  (569) 
expansion

>  <fragmenstein_error>  (569) 


$$$$
C29309-P60
     RDKit          3D

 39 41  0  0  0  0  0  0  0  0999 V2000
   -3.1563  -15.1577   29.3671 C   0  0  0  0  0  0  0  0  0  0  0  0
   -2.2524  -15.7380   28.3487 N   0  0  0  0  0  0  0  0  0  0  0  0
   -0.8954  -15.2585   28.1993 C   0  0  0  0  0  0  0  0  0  0  0  0
    0.0429  -13.9001   26.9893 C   0  0  0  0  0  0  0  0  0  0  0  0
    1.3497  -12.6370   26.0827 N   0  0  0  0  0  0  0  0  0  0  0  0
    2.1064  -10.7722   25.5588 C   0  0  0  0  0  0  0  0  0  0  0  0
    1.3769   -8.5944   26.0769 C   0  0  0  0  0  0  0  0  0  0  0  0
    0.9120   -8.7221   27.6338 N   0  0  0  0  0  0  0  0  0  0  0  0
    1.2987   -7.6349   25.3119 O   0  0  0  0  0  0  0  0  0  0  0  0
    3.1490  -10.3760   23.4953 C   0  0  0  0  0  0  0  0  0  0  0  0
    4.9846   -9.9467   23.3614 C   0  0  0  0  0  0  0  0  0  0  0  0
    5.7520   -8.6631   23.2000 C   0  0  0  0  0  0  0  0  0  0  0  0
    5.0936   -7.4362   22.9561 C   0  0  0  0  0  0  0  0  0  0  0  0
    3.7041   -7.4625   22.7636 C   0  0  0  0  0  0  0  0  0  0  0  0
    2.8653   -8.6816   22.8619 N   0  0  0  0  0  0  0  0  0  0  0  0
   -0.2620  -16.1043   29.0978 N   0  0  0  0  0  0  0  0  0  0  0  0
   -0.9488  -17.2836   29.1648 C   0  0  0  0  0  0  0  0  0  0  0  0
   -0.5804  -18.5140   29.7291 C   0  0  0  0  0  0  0  0  0  0  0  0
   -1.3471  -19.6397   29.4335 C   0  0  0  0  0  0  0  0  0  0  0  0
   -2.4805  -19.5104   28.6410 C   0  0  0  0  0  0  0  0  0  0  0  0
   -2.9730  -18.2497   28.2503 C   0  0  0  0  0  0  0  0  0  0  0  0
   -2.1382  -17.1519   28.4812 C   0  0  0  0  0  0  0  0  0  0  0  0
   -4.1007  -15.7086   29.3591 H   0  0  0  0  0  0  0  0  0  0  0  0
   -3.3115  -14.1034   29.1385 H   0  0  0  0  0  0  0  0  0  0  0  0
   -2.6826  -15.2554   30.3495 H   0  0  0  0  0  0  0  0  0  0  0  0
   -1.1490  -14.2265   26.7319 H   0  0  0  0  0  0  0  0  0  0  0  0
   -0.5704  -13.4500   25.9768 H   0  0  0  0  0  0  0  0  0  0  0  0
    1.1988  -12.9477   25.1146 H   0  0  0  0  0  0  0  0  0  0  0  0
    2.2150  -10.6181   26.7419 H   0  0  0  0  0  0  0  0  0  0  0  0
    1.2299   -9.6325   28.0156 H   0  0  0  0  0  0  0  0  0  0  0  0
    1.0163   -9.7080   27.9468 H   0  0  0  0  0  0  0  0  0  0  0  0
    5.6974  -10.7976   23.3806 H   0  0  0  0  0  0  0  0  0  0  0  0
    6.8393   -8.7045   23.2140 H   0  0  0  0  0  0  0  0  0  0  0  0
    5.6470   -6.5137   22.8289 H   0  0  0  0  0  0  0  0  0  0  0  0
    3.1236   -6.5851   22.4898 H   0  0  0  0  0  0  0  0  0  0  0  0
    0.3460  -18.5970   30.2862 H   0  0  0  0  0  0  0  0  0  0  0  0
   -1.0222  -20.6183   29.7754 H   0  0  0  0  0  0  0  0  0  0  0  0
   -2.9924  -20.4188   28.3369 H   0  0  0  0  0  0  0  0  0  0  0  0
   -3.9327  -18.1443   27.7642 H   0  0  0  0  0  0  0  0  0  0  0  0
  1  2  1  0
  2  3  1  0
  3  4  1  0
  4  5  1  0
  5  6  1  0
  6  7  1  0
  7  8  1  0
  7  9  2  0
  6 10  1  0
 10 11  2  0
 11 12  1  0
 12 13  2  0
 13 14  1  0
 14 15  2  0
  3 16  2  0
 16 17  1  0
 17 18  2  0
 18 19  1  0
 19 20  2  0
 20 21  1  0
 21 22  2  0
 22  2  1  0
 15 10  1  0
 22 17  1  0
  1 23  1  0
  1 24  1  0
  1 25  1  0
  4 26  1  0
  4 27  1  0
  5 28  1  0
  6 29  1  0
  8 30  1  0
  8 31  1  0
 11 32  1  0
 12 33  1  0
 13 34  1  0
 14 35  1  0
 18 36  1  0
 19 37  1  0
 20 38  1  0
 21 39  1  0
M  END
>  <Energy>  (570) 
1605.8871552648363

>  <compound_id>  (570) 
29309

>  <target_id>  (570) 
1

>  <reference_id>  (570) 
60

>  <inspiration_ids>  (570) 
[52, 60]

>  <energy_score>  (570) 
1498.47853757867

>  <distance_score>  (570) 
12.931595793515989

>  <path>  (570) 
/opt/xchem-fragalysis-2/maxwin/BulkDock/SCRATCH/511017/C29309-P60/C29309-P60.minimised.mol

>  <scratch_subdir>  (570) 
/opt/xchem-fragalysis-2/maxwin/BulkDock/SCRATCH/511017/C29309-P60

>  <fragmenstein_runtime>  (570) 
24.975082874298096

>  <fragmenstein_outcome>  (570) 
too moved

>  <fragmenstein_mode>  (570) 
expansion

>  <fragmenstein_error>  (570) 


$$$$
C29310-P52
     RDKit          3D

 38 40  0  0  0  0  0  0  0  0999 V2000
   -7.0009  -18.9430   27.4307 C   0  0  0  0  0  0  0  0  0  0  0  0
   -7.8413  -18.1791   28.7992 N   0  0  0  0  0  0  0  0  0  0  0  0
   -9.1624  -19.3343   30.1569 C   0  0  0  0  0  0  0  0  0  0  0  0
   -7.4000  -19.4654   31.2913 N   0  0  0  0  0  0  0  0  0  0  0  0
   -6.1714  -17.8935   30.3722 C   0  0  0  0  0  0  0  0  0  0  0  0
   -4.7389  -17.9435   30.5766 C   0  0  0  0  0  0  0  0  0  0  0  0
   -4.1373  -18.3970   29.2736 C   0  0  0  0  0  0  0  0  0  0  0  0
   -4.2178  -17.8063   27.7858 C   0  0  0  0  0  0  0  0  0  0  0  0
   -4.5226  -16.2262   27.4343 C   0  0  0  0  0  0  0  0  0  0  0  0
   -2.9089  -15.2646   25.9959 C   0  0  0  0  0  0  0  0  0  0  0  0
   -1.9657  -13.6985   24.5464 N   0  0  0  0  0  0  0  0  0  0  0  0
   -0.0633  -12.8311   23.5241 C   0  0  0  0  0  0  0  0  0  0  0  0
    1.6665  -11.3973   22.5671 C   0  0  0  0  0  0  0  0  0  0  0  0
    2.7460  -12.1505   23.0136 F   0  0  0  0  0  0  0  0  0  0  0  0
    1.3900  -10.4269   23.4372 F   0  0  0  0  0  0  0  0  0  0  0  0
    3.1364  -10.0663   21.3227 C   0  0  0  0  0  0  0  0  0  0  0  0
    4.7075   -9.8528   20.0155 C   0  0  0  0  0  0  0  0  0  0  0  0
    6.1557   -8.8140   18.9501 C   0  0  0  0  0  0  0  0  0  0  0  0
    5.6573   -6.7330   18.7143 C   0  0  0  0  0  0  0  0  0  0  0  0
    4.1746   -6.5701   20.2084 C   0  0  0  0  0  0  0  0  0  0  0  0
    3.7423   -8.1703   21.4788 N   0  0  0  0  0  0  0  0  0  0  0  0
   -6.0921  -17.1002   28.6093 C   0  0  0  0  0  0  0  0  0  0  0  0
   -7.4300  -19.9487   27.3625 H   0  0  0  0  0  0  0  0  0  0  0  0
   -5.9207  -19.0372   27.3459 H   0  0  0  0  0  0  0  0  0  0  0  0
   -6.9945  -18.0485   26.7810 H   0  0  0  0  0  0  0  0  0  0  0  0
   -9.7810  -20.0995   29.5932 H   0  0  0  0  0  0  0  0  0  0  0  0
   -4.3838  -18.3968   31.4984 H   0  0  0  0  0  0  0  0  0  0  0  0
   -3.3934  -19.2013   29.3670 H   0  0  0  0  0  0  0  0  0  0  0  0
   -3.4645  -18.3386   27.1722 H   0  0  0  0  0  0  0  0  0  0  0  0
   -2.3976  -14.7699   26.8279 H   0  0  0  0  0  0  0  0  0  0  0  0
   -2.2986  -16.1563   25.7561 H   0  0  0  0  0  0  0  0  0  0  0  0
   -2.2396  -14.2499   23.7197 H   0  0  0  0  0  0  0  0  0  0  0  0
    0.2788  -12.2526   24.4657 H   0  0  0  0  0  0  0  0  0  0  0  0
   -0.6920  -12.8179   22.6395 H   0  0  0  0  0  0  0  0  0  0  0  0
    4.7684  -10.8549   19.4730 H   0  0  0  0  0  0  0  0  0  0  0  0
    6.6461   -9.3410   18.1156 H   0  0  0  0  0  0  0  0  0  0  0  0
    5.6968   -6.1346   17.8134 H   0  0  0  0  0  0  0  0  0  0  0  0
    3.8897   -5.6069   20.6590 H   0  0  0  0  0  0  0  0  0  0  0  0
  1  2  1  0
  2  3  1  0
  3  4  2  0
  4  5  1  0
  5  6  2  0
  6  7  1  0
  7  8  2  0
  8  9  1  0
  9 10  1  0
 10 11  1  0
 11 12  1  0
 12 13  1  0
 13 14  1  0
 13 15  1  0
 13 16  1  0
 16 17  2  0
 17 18  1  0
 18 19  2  0
 19 20  1  0
 20 21  2  0
  9 22  2  0
 22  2  1  0
 22  5  1  0
 21 16  1  0
  1 23  1  0
  1 24  1  0
  1 25  1  0
  3 26  1  0
  6 27  1  0
  7 28  1  0
  8 29  1  0
 10 30  1  0
 10 31  1  0
 11 32  1  0
 12 33  1  0
 12 34  1  0
 17 35  1  0
 18 36  1  0
 19 37  1  0
 20 38  1  0
M  END
>  <Energy>  (571) 
4842.7594120143522

>  <compound_id>  (571) 
29310

>  <target_id>  (571) 
1

>  <reference_id>  (571) 
52

>  <inspiration_ids>  (571) 
[52, 60]

>  <energy_score>  (571) 
4682.377450341732

>  <distance_score>  (571) 
9.047411749267924

>  <path>  (571) 
/opt/xchem-fragalysis-2/maxwin/BulkDock/SCRATCH/511017/C29310-P52/C29310-P52.minimised.mol

>  <scratch_subdir>  (571) 
/opt/xchem-fragalysis-2/maxwin/BulkDock/SCRATCH/511017/C29310-P52

>  <fragmenstein_runtime>  (571) 
16.263586282730103

>  <fragmenstein_outcome>  (571) 
too moved

>  <fragmenstein_mode>  (571) 
expansion

>  <fragmenstein_error>  (571) 


$$$$
C29310-P60
     RDKit          3D

 38 40  0  0  0  0  0  0  0  0999 V2000
    1.1331  -17.0053   30.9882 C   0  0  0  0  0  0  0  0  0  0  0  0
    1.4597  -18.1398   30.1678 N   0  0  0  0  0  0  0  0  0  0  0  0
    0.9879  -19.3481   30.6429 C   0  0  0  0  0  0  0  0  0  0  0  0
    0.7874  -20.1898   29.6825 N   0  0  0  0  0  0  0  0  0  0  0  0
    1.3290  -19.5699   28.5863 C   0  0  0  0  0  0  0  0  0  0  0  0
    1.3880  -20.2002   27.3523 C   0  0  0  0  0  0  0  0  0  0  0  0
    2.0993  -19.5732   26.3658 C   0  0  0  0  0  0  0  0  0  0  0  0
    2.6657  -18.2972   26.5700 C   0  0  0  0  0  0  0  0  0  0  0  0
    2.5424  -17.4384   27.7034 C   0  0  0  0  0  0  0  0  0  0  0  0
    3.4164  -15.8537   27.6882 C   0  0  0  0  0  0  0  0  0  0  0  0
    4.0158  -14.4343   26.7988 N   0  0  0  0  0  0  0  0  0  0  0  0
    5.2646  -13.1743   27.3686 C   0  0  0  0  0  0  0  0  0  0  0  0
    6.2728  -11.6955   27.3385 C   0  0  0  0  0  0  0  0  0  0  0  0
    7.0725  -11.7866   28.4619 F   0  0  0  0  0  0  0  0  0  0  0  0
    5.3887  -10.6857   27.7051 F   0  0  0  0  0  0  0  0  0  0  0  0
    7.2048  -11.1967   26.1683 C   0  0  0  0  0  0  0  0  0  0  0  0
    8.0766  -12.0213   25.4656 C   0  0  0  0  0  0  0  0  0  0  0  0
    8.9390  -11.4775   24.4918 C   0  0  0  0  0  0  0  0  0  0  0  0
    8.9677  -10.1091   24.2648 C   0  0  0  0  0  0  0  0  0  0  0  0
    8.1253   -9.3336   25.0307 C   0  0  0  0  0  0  0  0  0  0  0  0
    7.2676   -9.8412   25.9556 N   0  0  0  0  0  0  0  0  0  0  0  0
    1.8494  -18.2425   28.8096 C   0  0  0  0  0  0  0  0  0  0  0  0
    0.7592  -16.2221   30.3457 H   0  0  0  0  0  0  0  0  0  0  0  0
    2.0083  -16.7296   31.5714 H   0  0  0  0  0  0  0  0  0  0  0  0
    0.3470  -17.2552   31.7078 H   0  0  0  0  0  0  0  0  0  0  0  0
    0.7212  -19.5075   31.6808 H   0  0  0  0  0  0  0  0  0  0  0  0
    0.9704  -21.1901   27.2128 H   0  0  0  0  0  0  0  0  0  0  0  0
    2.2345  -20.0613   25.4011 H   0  0  0  0  0  0  0  0  0  0  0  0
    3.1868  -17.9378   25.6853 H   0  0  0  0  0  0  0  0  0  0  0  0
    4.1975  -16.1671   28.3106 H   0  0  0  0  0  0  0  0  0  0  0  0
    2.5234  -15.3239   27.9817 H   0  0  0  0  0  0  0  0  0  0  0  0
    3.2014  -13.8256   26.6589 H   0  0  0  0  0  0  0  0  0  0  0  0
    5.3826  -13.0612   26.2843 H   0  0  0  0  0  0  0  0  0  0  0  0
    4.6646  -12.7470   28.1363 H   0  0  0  0  0  0  0  0  0  0  0  0
    8.1458  -13.0802   25.6963 H   0  0  0  0  0  0  0  0  0  0  0  0
    9.6135  -12.1342   23.9471 H   0  0  0  0  0  0  0  0  0  0  0  0
    9.6346   -9.6640   23.5381 H   0  0  0  0  0  0  0  0  0  0  0  0
    8.0887   -8.2537   24.9182 H   0  0  0  0  0  0  0  0  0  0  0  0
  1  2  1  0
  2  3  1  0
  3  4  2  0
  4  5  1  0
  5  6  2  0
  6  7  1  0
  7  8  2  0
  8  9  1  0
  9 10  1  0
 10 11  1  0
 11 12  1  0
 12 13  1  0
 13 14  1  0
 13 15  1  0
 13 16  1  0
 16 17  2  0
 17 18  1  0
 18 19  2  0
 19 20  1  0
 20 21  2  0
  9 22  2  0
 22  2  1  0
 22  5  1  0
 21 16  1  0
  1 23  1  0
  1 24  1  0
  1 25  1  0
  3 26  1  0
  6 27  1  0
  7 28  1  0
  8 29  1  0
 10 30  1  0
 10 31  1  0
 11 32  1  0
 12 33  1  0
 12 34  1  0
 17 35  1  0
 18 36  1  0
 19 37  1  0
 20 38  1  0
M  END
>  <Energy>  (572) 
388.04587347925275

>  <compound_id>  (572) 
29310

>  <target_id>  (572) 
1

>  <reference_id>  (572) 
60

>  <inspiration_ids>  (572) 
[52, 60]

>  <energy_score>  (572) 
227.66391180662458

>  <distance_score>  (572) 
13.994951450166669

>  <path>  (572) 
/opt/xchem-fragalysis-2/maxwin/BulkDock/SCRATCH/511017/C29310-P60/C29310-P60.minimised.mol

>  <scratch_subdir>  (572) 
/opt/xchem-fragalysis-2/maxwin/BulkDock/SCRATCH/511017/C29310-P60

>  <fragmenstein_runtime>  (572) 
19.938838720321655

>  <fragmenstein_outcome>  (572) 
too moved

>  <fragmenstein_mode>  (572) 
expansion

>  <fragmenstein_error>  (572) 


$$$$
C29311-P52
     RDKit          3D

 43 45  0  0  0  0  0  0  0  0999 V2000
    7.8327   -8.9017   23.9105 C   0  0  0  0  0  0  0  0  0  0  0  0
    6.3269   -8.5426   23.6924 C   0  0  0  0  0  0  0  0  0  0  0  0
    6.0979   -7.0100   23.6866 C   0  0  0  0  0  0  0  0  0  0  0  0
    5.4660   -9.6238   22.5555 C   0  0  0  0  0  0  0  0  0  0  0  0
    3.9190   -9.8844   21.2152 C   0  0  0  0  0  0  0  0  0  0  0  0
    2.1641  -10.5025   22.1831 N   0  0  0  0  0  0  0  0  0  0  0  0
    1.4764  -12.2332   22.7552 C   0  0  0  0  0  0  0  0  0  0  0  0
    2.2905  -13.1043   22.5680 O   0  0  0  0  0  0  0  0  0  0  0  0
   -0.5056  -12.9500   23.4685 C   0  0  0  0  0  0  0  0  0  0  0  0
   -1.8400  -12.8071   24.6430 C   0  0  0  0  0  0  0  0  0  0  0  0
   -2.6489  -13.7317   25.9959 C   0  0  0  0  0  0  0  0  0  0  0  0
   -2.2606  -16.0528   26.4302 Br  0  0  0  0  0  0  0  0  0  0  0  0
   -3.8183  -14.2747   25.7725 C   0  0  0  0  0  0  0  0  0  0  0  0
   -3.3686  -14.7135   24.4528 C   0  0  0  0  0  0  0  0  0  0  0  0
   -4.4161  -14.9850   23.4702 N   0  0  0  0  0  0  0  0  0  0  0  0
   -5.0096  -13.8332   23.7042 C   0  0  0  0  0  0  0  0  0  0  0  0
   -3.8381  -13.1882   23.7737 N   0  0  0  0  0  0  0  0  0  0  0  0
   -2.1225  -13.9945   23.6072 C   0  0  0  0  0  0  0  0  0  0  0  0
    5.6157   -8.9245   20.6088 C   0  0  0  0  0  0  0  0  0  0  0  0
    6.0088   -9.0323   18.7042 C   0  0  0  0  0  0  0  0  0  0  0  0
    7.6142   -8.3803   17.8166 C   0  0  0  0  0  0  0  0  0  0  0  0
    8.6786   -7.0030   18.8484 C   0  0  0  0  0  0  0  0  0  0  0  0
    8.8420   -7.4993   20.7575 C   0  0  0  0  0  0  0  0  0  0  0  0
    7.0099   -7.9008   21.5245 N   0  0  0  0  0  0  0  0  0  0  0  0
    8.1051   -8.6984   24.9539 H   0  0  0  0  0  0  0  0  0  0  0  0
    8.0082   -9.9670   23.7319 H   0  0  0  0  0  0  0  0  0  0  0  0
    8.5280   -8.3197   23.3087 H   0  0  0  0  0  0  0  0  0  0  0  0
    5.9649   -8.8835   24.6810 H   0  0  0  0  0  0  0  0  0  0  0  0
    5.7485   -6.6882   24.6751 H   0  0  0  0  0  0  0  0  0  0  0  0
    7.0144   -6.4433   23.4918 H   0  0  0  0  0  0  0  0  0  0  0  0
    5.3319   -6.7115   22.9643 H   0  0  0  0  0  0  0  0  0  0  0  0
    5.2553  -10.3091   23.3833 H   0  0  0  0  0  0  0  0  0  0  0  0
    6.3764  -10.1109   22.1559 H   0  0  0  0  0  0  0  0  0  0  0  0
    3.4659   -8.8940   20.9724 H   0  0  0  0  0  0  0  0  0  0  0  0
    1.4515   -9.8690   22.2725 H   0  0  0  0  0  0  0  0  0  0  0  0
   -2.3649  -11.8219   24.5708 H   0  0  0  0  0  0  0  0  0  0  0  0
   -4.5768  -14.7675   26.3487 H   0  0  0  0  0  0  0  0  0  0  0  0
   -4.1286  -15.0618   22.5101 H   0  0  0  0  0  0  0  0  0  0  0  0
   -6.0399  -13.5096   23.7336 H   0  0  0  0  0  0  0  0  0  0  0  0
    5.3470   -9.6730   18.1124 H   0  0  0  0  0  0  0  0  0  0  0  0
    7.7718   -8.6334   16.7782 H   0  0  0  0  0  0  0  0  0  0  0  0
    9.6544   -6.6152   18.5668 H   0  0  0  0  0  0  0  0  0  0  0  0
    9.5988   -7.1730   21.4837 H   0  0  0  0  0  0  0  0  0  0  0  0
  1  2  1  0
  2  3  1  0
  2  4  1  0
  4  5  1  0
  5  6  1  0
  6  7  1  0
  7  8  2  0
  7  9  1  0
  9 10  2  0
 10 11  1  0
 11 12  1  0
 11 13  2  0
 13 14  1  0
 14 15  1  0
 15 16  1  0
 16 17  2  0
 17 18  1  0
  5 19  1  0
 19 20  2  0
 20 21  1  0
 21 22  2  0
 22 23  1  0
 23 24  2  0
 18  9  1  0
 24 19  1  0
 18 14  2  0
  1 25  1  0
  1 26  1  0
  1 27  1  0
  2 28  1  0
  3 29  1  0
  3 30  1  0
  3 31  1  0
  4 32  1  0
  4 33  1  0
  5 34  1  0
  6 35  1  0
 10 36  1  0
 13 37  1  0
 15 38  1  0
 16 39  1  0
 20 40  1  0
 21 41  1  0
 22 42  1  0
 23 43  1  0
M  END
>  <Energy>  (573) 
2299.192161460312

>  <compound_id>  (573) 
29311

>  <target_id>  (573) 
1

>  <reference_id>  (573) 
52

>  <inspiration_ids>  (573) 
[52, 60]

>  <energy_score>  (573) 
2199.384271162454

>  <distance_score>  (573) 
11.935366231162442

>  <path>  (573) 
/opt/xchem-fragalysis-2/maxwin/BulkDock/SCRATCH/511017/C29311-P52/C29311-P52.minimised.mol

>  <scratch_subdir>  (573) 
/opt/xchem-fragalysis-2/maxwin/BulkDock/SCRATCH/511017/C29311-P52

>  <fragmenstein_runtime>  (573) 
13.337613105773926

>  <fragmenstein_outcome>  (573) 
too moved

>  <fragmenstein_mode>  (573) 
expansion

>  <fragmenstein_error>  (573) 


$$$$
C29311-P60
     RDKit          3D

 43 45  0  0  0  0  0  0  0  0999 V2000
    4.6936  -12.7322   18.2098 C   0  0  0  0  0  0  0  0  0  0  0  0
    5.2853  -12.9835   19.6261 C   0  0  0  0  0  0  0  0  0  0  0  0
    6.6332  -12.2503   19.6155 C   0  0  0  0  0  0  0  0  0  0  0  0
    4.0409  -12.9643   21.0195 C   0  0  0  0  0  0  0  0  0  0  0  0
    3.4238  -12.3037   22.8263 C   0  0  0  0  0  0  0  0  0  0  0  0
    1.9319  -13.0575   24.0237 N   0  0  0  0  0  0  0  0  0  0  0  0
    0.2285  -13.9924   23.6198 C   0  0  0  0  0  0  0  0  0  0  0  0
   -0.0129  -14.1808   22.4702 O   0  0  0  0  0  0  0  0  0  0  0  0
   -1.3117  -14.6392   24.7138 C   0  0  0  0  0  0  0  0  0  0  0  0
   -2.0018  -14.3524   25.9950 C   0  0  0  0  0  0  0  0  0  0  0  0
   -2.6277  -15.2442   27.1329 C   0  0  0  0  0  0  0  0  0  0  0  0
   -3.4655  -14.5992   28.7497 Br  0  0  0  0  0  0  0  0  0  0  0  0
   -2.9365  -16.5707   26.9139 C   0  0  0  0  0  0  0  0  0  0  0  0
   -3.1841  -16.6204   25.5556 C   0  0  0  0  0  0  0  0  0  0  0  0
   -4.2922  -17.2482   24.9856 N   0  0  0  0  0  0  0  0  0  0  0  0
   -4.6484  -16.5457   23.8755 C   0  0  0  0  0  0  0  0  0  0  0  0
   -3.7267  -15.6457   23.5732 N   0  0  0  0  0  0  0  0  0  0  0  0
   -2.5688  -15.7041   24.5337 C   0  0  0  0  0  0  0  0  0  0  0  0
    5.1237  -11.0400   22.9221 C   0  0  0  0  0  0  0  0  0  0  0  0
    6.1911  -11.3044   24.0067 C   0  0  0  0  0  0  0  0  0  0  0  0
    7.5825  -11.0599   23.9871 C   0  0  0  0  0  0  0  0  0  0  0  0
    8.1376  -10.7020   22.8067 C   0  0  0  0  0  0  0  0  0  0  0  0
    7.2397  -10.4847   21.8001 C   0  0  0  0  0  0  0  0  0  0  0  0
    5.8680  -10.6315   21.8557 N   0  0  0  0  0  0  0  0  0  0  0  0
    4.4337  -11.6936   17.9992 H   0  0  0  0  0  0  0  0  0  0  0  0
    5.4212  -13.0228   17.4405 H   0  0  0  0  0  0  0  0  0  0  0  0
    3.8188  -13.3627   18.0328 H   0  0  0  0  0  0  0  0  0  0  0  0
    5.6386  -13.9971   19.5023 H   0  0  0  0  0  0  0  0  0  0  0  0
    7.2220  -12.4887   20.4940 H   0  0  0  0  0  0  0  0  0  0  0  0
    7.2450  -12.6106   18.7763 H   0  0  0  0  0  0  0  0  0  0  0  0
    6.5026  -11.1851   19.4243 H   0  0  0  0  0  0  0  0  0  0  0  0
    3.1767  -13.4481   20.6849 H   0  0  0  0  0  0  0  0  0  0  0  0
    4.4976  -12.0517   21.0796 H   0  0  0  0  0  0  0  0  0  0  0  0
    2.8322  -11.3991   22.8305 H   0  0  0  0  0  0  0  0  0  0  0  0
    1.9775  -12.8834   25.0224 H   0  0  0  0  0  0  0  0  0  0  0  0
   -2.5650  -13.4014   25.8441 H   0  0  0  0  0  0  0  0  0  0  0  0
   -3.4588  -17.1897   27.6338 H   0  0  0  0  0  0  0  0  0  0  0  0
   -4.8980  -17.8948   25.4693 H   0  0  0  0  0  0  0  0  0  0  0  0
   -5.5665  -16.7178   23.3287 H   0  0  0  0  0  0  0  0  0  0  0  0
    5.9489  -11.9140   24.8844 H   0  0  0  0  0  0  0  0  0  0  0  0
    8.2000  -11.3220   24.8417 H   0  0  0  0  0  0  0  0  0  0  0  0
    9.2068  -10.6294   22.6602 H   0  0  0  0  0  0  0  0  0  0  0  0
    7.6087  -10.2024   20.8143 H   0  0  0  0  0  0  0  0  0  0  0  0
  1  2  1  0
  2  3  1  0
  2  4  1  0
  4  5  1  0
  5  6  1  0
  6  7  1  0
  7  8  2  0
  7  9  1  0
  9 10  2  0
 10 11  1  0
 11 12  1  0
 11 13  2  0
 13 14  1  0
 14 15  1  0
 15 16  1  0
 16 17  2  0
 17 18  1  0
  5 19  1  0
 19 20  2  0
 20 21  1  0
 21 22  2  0
 22 23  1  0
 23 24  2  0
 18  9  1  0
 24 19  1  0
 18 14  2  0
  1 25  1  0
  1 26  1  0
  1 27  1  0
  2 28  1  0
  3 29  1  0
  3 30  1  0
  3 31  1  0
  4 32  1  0
  4 33  1  0
  5 34  1  0
  6 35  1  0
 10 36  1  0
 13 37  1  0
 15 38  1  0
 16 39  1  0
 20 40  1  0
 21 41  1  0
 22 42  1  0
 23 43  1  0
M  END
>  <Energy>  (574) 
864.12505142143232

>  <compound_id>  (574) 
29311

>  <target_id>  (574) 
1

>  <reference_id>  (574) 
60

>  <inspiration_ids>  (574) 
[52, 60]

>  <energy_score>  (574) 
764.3171611235671

>  <distance_score>  (574) 
13.143322663392258

>  <path>  (574) 
/opt/xchem-fragalysis-2/maxwin/BulkDock/SCRATCH/511017/C29311-P60/C29311-P60.minimised.mol

>  <scratch_subdir>  (574) 
/opt/xchem-fragalysis-2/maxwin/BulkDock/SCRATCH/511017/C29311-P60

>  <fragmenstein_runtime>  (574) 
22.528808116912842

>  <fragmenstein_outcome>  (574) 
too moved

>  <fragmenstein_mode>  (574) 
expansion

>  <fragmenstein_error>  (574) 


$$$$
C29313-P52
     RDKit          3D

 29 32  0  0  0  0  0  0  0  0999 V2000
   -6.7835  -13.2968   31.6679 Br  0  0  0  0  0  0  0  0  0  0  0  0
   -6.3067  -15.1241   32.0423 C   0  0  0  0  0  0  0  0  0  0  0  0
   -7.0046  -15.6575   33.1287 C   0  0  0  0  0  0  0  0  0  0  0  0
   -6.8905  -17.0082   33.1948 C   0  0  0  0  0  0  0  0  0  0  0  0
   -7.7809  -17.8942   33.6715 N   0  0  0  0  0  0  0  0  0  0  0  0
   -7.3106  -19.1211   33.4249 C   0  0  0  0  0  0  0  0  0  0  0  0
   -6.3279  -19.0412   32.5740 N   0  0  0  0  0  0  0  0  0  0  0  0
   -6.0013  -17.7584   32.4604 C   0  0  0  0  0  0  0  0  0  0  0  0
   -5.1523  -17.1934   31.5073 C   0  0  0  0  0  0  0  0  0  0  0  0
   -5.3853  -15.8450   31.2217 C   0  0  0  0  0  0  0  0  0  0  0  0
   -4.6027  -15.1262   30.1706 C   0  0  0  0  0  0  0  0  0  0  0  0
   -3.9303  -14.0057   30.4885 N   0  0  0  0  0  0  0  0  0  0  0  0
   -3.2819  -13.6059   29.3219 O   0  0  0  0  0  0  0  0  0  0  0  0
   -3.5452  -14.5951   28.3190 C   0  0  0  0  0  0  0  0  0  0  0  0
   -2.6059  -14.5135   26.8699 C   0  0  0  0  0  0  0  0  0  0  0  0
   -2.8297  -15.6291   26.0614 C   0  0  0  0  0  0  0  0  0  0  0  0
   -3.1386  -15.3961   24.7146 C   0  0  0  0  0  0  0  0  0  0  0  0
   -2.8756  -14.1805   24.0622 C   0  0  0  0  0  0  0  0  0  0  0  0
   -2.3843  -13.1222   24.8491 C   0  0  0  0  0  0  0  0  0  0  0  0
   -2.2447  -13.3098   26.2787 N   0  0  0  0  0  0  0  0  0  0  0  0
   -4.4303  -15.5110   28.8154 N   0  0  0  0  0  0  0  0  0  0  0  0
   -7.7446  -15.0922   33.6838 H   0  0  0  0  0  0  0  0  0  0  0  0
   -8.7467  -17.6498   33.7804 H   0  0  0  0  0  0  0  0  0  0  0  0
   -7.7371  -20.0641   33.7299 H   0  0  0  0  0  0  0  0  0  0  0  0
   -4.4876  -17.8021   30.9067 H   0  0  0  0  0  0  0  0  0  0  0  0
   -3.1933  -16.5519   26.5147 H   0  0  0  0  0  0  0  0  0  0  0  0
   -3.8591  -16.1022   24.2946 H   0  0  0  0  0  0  0  0  0  0  0  0
   -3.4751  -14.1060   23.1589 H   0  0  0  0  0  0  0  0  0  0  0  0
   -2.4236  -12.0862   24.5606 H   0  0  0  0  0  0  0  0  0  0  0  0
  1  2  1  0
  2  3  2  0
  3  4  1  0
  4  5  1  0
  5  6  1  0
  6  7  2  0
  7  8  1  0
  8  9  1  0
  9 10  2  0
 10 11  1  0
 11 12  2  0
 12 13  1  0
 13 14  1  0
 14 15  1  0
 15 16  2  0
 16 17  1  0
 17 18  2  0
 18 19  1  0
 19 20  2  0
 14 21  2  0
 10  2  1  0
 21 11  1  0
  8  4  2  0
 20 15  1  0
  3 22  1  0
  5 23  1  0
  6 24  1  0
  9 25  1  0
 16 26  1  0
 17 27  1  0
 18 28  1  0
 19 29  1  0
M  END
>  <Energy>  (575) 
144.58762738900279

>  <compound_id>  (575) 
29313

>  <target_id>  (575) 
1

>  <reference_id>  (575) 
52

>  <inspiration_ids>  (575) 
[52, 60]

>  <energy_score>  (575) 
55.3942334897215

>  <distance_score>  (575) 
15.39464908030076

>  <path>  (575) 
/opt/xchem-fragalysis-2/maxwin/BulkDock/SCRATCH/511017/C29313-P52/C29313-P52.minimised.mol

>  <scratch_subdir>  (575) 
/opt/xchem-fragalysis-2/maxwin/BulkDock/SCRATCH/511017/C29313-P52

>  <fragmenstein_runtime>  (575) 
6.418090343475342

>  <fragmenstein_outcome>  (575) 
too moved

>  <fragmenstein_mode>  (575) 
expansion

>  <fragmenstein_error>  (575) 


$$$$
C29313-P60
     RDKit          3D

 29 32  0  0  0  0  0  0  0  0999 V2000
   -4.3936  -17.7022   29.1518 Br  0  0  0  0  0  0  0  0  0  0  0  0
   -4.3602  -17.9467   31.0406 C   0  0  0  0  0  0  0  0  0  0  0  0
   -5.6037  -17.8291   31.6749 C   0  0  0  0  0  0  0  0  0  0  0  0
   -5.6539  -18.0142   33.0535 C   0  0  0  0  0  0  0  0  0  0  0  0
   -6.6846  -17.9966   33.9552 N   0  0  0  0  0  0  0  0  0  0  0  0
   -6.1581  -18.1933   35.1958 C   0  0  0  0  0  0  0  0  0  0  0  0
   -4.8625  -18.4085   35.1392 N   0  0  0  0  0  0  0  0  0  0  0  0
   -4.5323  -18.3025   33.8099 C   0  0  0  0  0  0  0  0  0  0  0  0
   -3.2823  -18.3810   33.1706 C   0  0  0  0  0  0  0  0  0  0  0  0
   -3.1829  -18.1614   31.7753 C   0  0  0  0  0  0  0  0  0  0  0  0
   -1.8498  -17.9961   31.1799 C   0  0  0  0  0  0  0  0  0  0  0  0
   -0.8863  -17.2606   31.7653 N   0  0  0  0  0  0  0  0  0  0  0  0
    0.1370  -17.2233   30.8157 O   0  0  0  0  0  0  0  0  0  0  0  0
   -0.2856  -17.9688   29.7538 C   0  0  0  0  0  0  0  0  0  0  0  0
    0.6511  -18.1293   28.6359 C   0  0  0  0  0  0  0  0  0  0  0  0
    0.4175  -19.1262   27.6885 C   0  0  0  0  0  0  0  0  0  0  0  0
    1.3805  -19.4156   26.7332 C   0  0  0  0  0  0  0  0  0  0  0  0
    2.5315  -18.6597   26.7141 C   0  0  0  0  0  0  0  0  0  0  0  0
    2.6557  -17.6324   27.6435 C   0  0  0  0  0  0  0  0  0  0  0  0
    1.7541  -17.3473   28.6060 N   0  0  0  0  0  0  0  0  0  0  0  0
   -1.4815  -18.4942   29.9449 N   0  0  0  0  0  0  0  0  0  0  0  0
   -6.4987  -17.6233   31.1059 H   0  0  0  0  0  0  0  0  0  0  0  0
   -7.6600  -17.8758   33.7409 H   0  0  0  0  0  0  0  0  0  0  0  0
   -6.7622  -18.2010   36.0927 H   0  0  0  0  0  0  0  0  0  0  0  0
   -2.3968  -18.5423   33.7780 H   0  0  0  0  0  0  0  0  0  0  0  0
   -0.4897  -19.7242   27.7393 H   0  0  0  0  0  0  0  0  0  0  0  0
    1.2225  -20.2053   26.0039 H   0  0  0  0  0  0  0  0  0  0  0  0
    3.2304  -18.8409   25.9084 H   0  0  0  0  0  0  0  0  0  0  0  0
    3.4840  -16.9432   27.6406 H   0  0  0  0  0  0  0  0  0  0  0  0
  1  2  1  0
  2  3  2  0
  3  4  1  0
  4  5  1  0
  5  6  1  0
  6  7  2  0
  7  8  1  0
  8  9  1  0
  9 10  2  0
 10 11  1  0
 11 12  2  0
 12 13  1  0
 13 14  1  0
 14 15  1  0
 15 16  2  0
 16 17  1  0
 17 18  2  0
 18 19  1  0
 19 20  2  0
 14 21  2  0
 10  2  1  0
 21 11  1  0
  8  4  2  0
 20 15  1  0
  3 22  1  0
  5 23  1  0
  6 24  1  0
  9 25  1  0
 16 26  1  0
 17 27  1  0
 18 28  1  0
 19 29  1  0
M  END
>  <Energy>  (576) 
67.816424633841493

>  <compound_id>  (576) 
29313

>  <target_id>  (576) 
1

>  <reference_id>  (576) 
60

>  <inspiration_ids>  (576) 
[52, 60]

>  <energy_score>  (576) 
-21.59992743363199

>  <distance_score>  (576) 
16.180137329459143

>  <path>  (576) 
/opt/xchem-fragalysis-2/maxwin/BulkDock/SCRATCH/511017/C29313-P60/C29313-P60.minimised.mol

>  <scratch_subdir>  (576) 
/opt/xchem-fragalysis-2/maxwin/BulkDock/SCRATCH/511017/C29313-P60

>  <fragmenstein_runtime>  (576) 
13.462888479232788

>  <fragmenstein_outcome>  (576) 
too moved

>  <fragmenstein_mode>  (576) 
expansion

>  <fragmenstein_error>  (576) 


$$$$
C29314-P52
     RDKit          3D

 31 33  0  0  0  0  0  0  0  0999 V2000
   -7.2269  -17.3747   21.2649 O   0  0  0  0  0  0  0  0  0  0  0  0
   -7.3063  -17.0366   22.4127 C   0  0  0  0  0  0  0  0  0  0  0  0
   -6.7402  -15.8971   23.1001 N   0  0  0  0  0  0  0  0  0  0  0  0
   -5.7640  -14.8000   22.6120 C   0  0  0  0  0  0  0  0  0  0  0  0
   -4.2240  -14.3788   23.2542 C   0  0  0  0  0  0  0  0  0  0  0  0
   -3.2825  -14.4557   24.2429 C   0  0  0  0  0  0  0  0  0  0  0  0
   -2.3700  -13.3992   24.6049 C   0  0  0  0  0  0  0  0  0  0  0  0
   -1.3129  -13.2922   23.7257 C   0  0  0  0  0  0  0  0  0  0  0  0
   -1.6935  -13.8533   22.6464 C   0  0  0  0  0  0  0  0  0  0  0  0
   -3.2953  -14.0905   22.4946 N   0  0  0  0  0  0  0  0  0  0  0  0
   -8.0530  -18.0770   23.2678 C   0  0  0  0  0  0  0  0  0  0  0  0
   -8.6630  -19.1813   22.6134 C   0  0  0  0  0  0  0  0  0  0  0  0
   -8.9887  -20.3794   23.2705 C   0  0  0  0  0  0  0  0  0  0  0  0
   -9.7787  -21.7901   22.2850 Br  0  0  0  0  0  0  0  0  0  0  0  0
   -8.6810  -20.5870   24.6080 C   0  0  0  0  0  0  0  0  0  0  0  0
   -8.1214  -19.4938   25.2572 C   0  0  0  0  0  0  0  0  0  0  0  0
   -7.6963  -19.3614   26.5504 N   0  0  0  0  0  0  0  0  0  0  0  0
   -7.3839  -18.0543   26.7505 C   0  0  0  0  0  0  0  0  0  0  0  0
   -7.5068  -17.3572   25.6434 N   0  0  0  0  0  0  0  0  0  0  0  0
   -7.8848  -18.2443   24.6636 C   0  0  0  0  0  0  0  0  0  0  0  0
   -7.0850  -15.8821   24.0544 H   0  0  0  0  0  0  0  0  0  0  0  0
   -5.5418  -15.2121   21.6192 H   0  0  0  0  0  0  0  0  0  0  0  0
   -6.3700  -13.8984   22.4652 H   0  0  0  0  0  0  0  0  0  0  0  0
   -2.9750  -15.3137   24.7897 H   0  0  0  0  0  0  0  0  0  0  0  0
   -2.3368  -13.1620   25.6564 H   0  0  0  0  0  0  0  0  0  0  0  0
   -0.3247  -12.9061   23.6723 H   0  0  0  0  0  0  0  0  0  0  0  0
   -1.1748  -13.8407   21.6720 H   0  0  0  0  0  0  0  0  0  0  0  0
   -8.8185  -19.1209   21.5346 H   0  0  0  0  0  0  0  0  0  0  0  0
   -8.8730  -21.5284   25.1108 H   0  0  0  0  0  0  0  0  0  0  0  0
   -7.6668  -20.1076   27.2288 H   0  0  0  0  0  0  0  0  0  0  0  0
   -7.0523  -17.6684   27.7044 H   0  0  0  0  0  0  0  0  0  0  0  0
  1  2  2  0
  2  3  1  0
  3  4  1  0
  4  5  1  0
  5  6  2  0
  6  7  1  0
  7  8  2  0
  8  9  1  0
  9 10  2  0
  2 11  1  0
 11 12  2  0
 12 13  1  0
 13 14  1  0
 13 15  2  0
 15 16  1  0
 16 17  1  0
 17 18  1  0
 18 19  2  0
 19 20  1  0
 10  5  1  0
 20 11  1  0
 20 16  2  0
  3 21  1  0
  4 22  1  0
  4 23  1  0
  6 24  1  0
  7 25  1  0
  8 26  1  0
  9 27  1  0
 12 28  1  0
 15 29  1  0
 17 30  1  0
 18 31  1  0
M  END
>  <Energy>  (577) 
228.96073416487951

>  <compound_id>  (577) 
29314

>  <target_id>  (577) 
1

>  <reference_id>  (577) 
52

>  <inspiration_ids>  (577) 
[52, 60]

>  <energy_score>  (577) 
185.41069836870565

>  <distance_score>  (577) 
15.434214363196476

>  <path>  (577) 
/opt/xchem-fragalysis-2/maxwin/BulkDock/SCRATCH/511017/C29314-P52/C29314-P52.minimised.mol

>  <scratch_subdir>  (577) 
/opt/xchem-fragalysis-2/maxwin/BulkDock/SCRATCH/511017/C29314-P52

>  <fragmenstein_runtime>  (577) 
18.429607152938843

>  <fragmenstein_outcome>  (577) 
too moved

>  <fragmenstein_mode>  (577) 
expansion

>  <fragmenstein_error>  (577) 


$$$$
C29314-P60
     RDKit          3D

 31 33  0  0  0  0  0  0  0  0999 V2000
    1.5514  -18.2485   28.0308 O   0  0  0  0  0  0  0  0  0  0  0  0
    1.6338  -17.3982   28.8741 C   0  0  0  0  0  0  0  0  0  0  0  0
    2.6777  -16.3766   29.1104 N   0  0  0  0  0  0  0  0  0  0  0  0
    3.9951  -16.1505   28.4376 C   0  0  0  0  0  0  0  0  0  0  0  0
    4.6893  -14.7562   28.1911 C   0  0  0  0  0  0  0  0  0  0  0  0
    5.7240  -14.6907   27.2265 C   0  0  0  0  0  0  0  0  0  0  0  0
    6.5768  -13.5717   27.1433 C   0  0  0  0  0  0  0  0  0  0  0  0
    6.3816  -12.5070   27.9999 C   0  0  0  0  0  0  0  0  0  0  0  0
    5.3523  -12.6303   28.9195 C   0  0  0  0  0  0  0  0  0  0  0  0
    4.5072  -13.7068   29.0337 N   0  0  0  0  0  0  0  0  0  0  0  0
    0.4830  -17.5173   29.9044 C   0  0  0  0  0  0  0  0  0  0  0  0
    0.7660  -17.4920   31.2856 C   0  0  0  0  0  0  0  0  0  0  0  0
   -0.2117  -17.7872   32.2551 C   0  0  0  0  0  0  0  0  0  0  0  0
    0.2785  -17.7274   34.0867 Br  0  0  0  0  0  0  0  0  0  0  0  0
   -1.5219  -18.1343   31.9251 C   0  0  0  0  0  0  0  0  0  0  0  0
   -1.8112  -18.1799   30.5638 C   0  0  0  0  0  0  0  0  0  0  0  0
   -2.9841  -18.5034   29.9182 N   0  0  0  0  0  0  0  0  0  0  0  0
   -2.7524  -18.4104   28.5804 C   0  0  0  0  0  0  0  0  0  0  0  0
   -1.5112  -18.0550   28.3260 N   0  0  0  0  0  0  0  0  0  0  0  0
   -0.8719  -17.8964   29.5514 C   0  0  0  0  0  0  0  0  0  0  0  0
    2.4652  -15.8764   29.9625 H   0  0  0  0  0  0  0  0  0  0  0  0
    4.7073  -16.7246   29.0435 H   0  0  0  0  0  0  0  0  0  0  0  0
    3.9257  -16.6686   27.4745 H   0  0  0  0  0  0  0  0  0  0  0  0
    5.9163  -15.5520   26.5884 H   0  0  0  0  0  0  0  0  0  0  0  0
    7.4280  -13.5686   26.4693 H   0  0  0  0  0  0  0  0  0  0  0  0
    7.0272  -11.6378   27.9895 H   0  0  0  0  0  0  0  0  0  0  0  0
    5.1642  -11.8408   29.6438 H   0  0  0  0  0  0  0  0  0  0  0  0
    1.7833  -17.2873   31.6127 H   0  0  0  0  0  0  0  0  0  0  0  0
   -2.2676  -18.3650   32.6782 H   0  0  0  0  0  0  0  0  0  0  0  0
   -3.8560  -18.7721   30.3574 H   0  0  0  0  0  0  0  0  0  0  0  0
   -3.5163  -18.6124   27.8424 H   0  0  0  0  0  0  0  0  0  0  0  0
  1  2  2  0
  2  3  1  0
  3  4  1  0
  4  5  1  0
  5  6  2  0
  6  7  1  0
  7  8  2  0
  8  9  1  0
  9 10  2  0
  2 11  1  0
 11 12  2  0
 12 13  1  0
 13 14  1  0
 13 15  2  0
 15 16  1  0
 16 17  1  0
 17 18  1  0
 18 19  2  0
 19 20  1  0
 10  5  1  0
 20 11  1  0
 20 16  2  0
  3 21  1  0
  4 22  1  0
  4 23  1  0
  6 24  1  0
  7 25  1  0
  8 26  1  0
  9 27  1  0
 12 28  1  0
 15 29  1  0
 17 30  1  0
 18 31  1  0
M  END
>  <Energy>  (578) 
62.692792099467297

>  <compound_id>  (578) 
29314

>  <target_id>  (578) 
1

>  <reference_id>  (578) 
60

>  <inspiration_ids>  (578) 
[52, 60]

>  <energy_score>  (578) 
19.142756303292515

>  <distance_score>  (578) 
14.801314811646245

>  <path>  (578) 
/opt/xchem-fragalysis-2/maxwin/BulkDock/SCRATCH/511017/C29314-P60/C29314-P60.minimised.mol

>  <scratch_subdir>  (578) 
/opt/xchem-fragalysis-2/maxwin/BulkDock/SCRATCH/511017/C29314-P60

>  <fragmenstein_runtime>  (578) 
21.82671308517456

>  <fragmenstein_outcome>  (578) 
too moved

>  <fragmenstein_mode>  (578) 
expansion

>  <fragmenstein_error>  (578) 


$$$$
C29315-P52
     RDKit          3D

 35 37  0  0  0  0  0  0  0  0999 V2000
   -2.2891  -16.5043   25.9353 O   0  0  0  0  0  0  0  0  0  0  0  0
   -2.8575  -15.5665   26.4476 C   0  0  0  0  0  0  0  0  0  0  0  0
   -2.5345  -13.8015   25.7532 N   0  0  0  0  0  0  0  0  0  0  0  0
   -1.6029  -13.2065   24.2618 C   0  0  0  0  0  0  0  0  0  0  0  0
    0.1702  -12.9037   23.4137 C   0  0  0  0  0  0  0  0  0  0  0  0
   -0.4670  -12.8149   22.1482 O   0  0  0  0  0  0  0  0  0  0  0  0
    1.8905  -12.1721   22.7596 C   0  0  0  0  0  0  0  0  0  0  0  0
    2.0929  -10.9287   22.3565 C   0  0  0  0  0  0  0  0  0  0  0  0
    2.9903  -10.6578   21.2943 C   0  0  0  0  0  0  0  0  0  0  0  0
    3.2305  -11.5247   20.2494 C   0  0  0  0  0  0  0  0  0  0  0  0
    2.7881  -12.7217   20.6656 C   0  0  0  0  0  0  0  0  0  0  0  0
    2.5719  -13.0981   22.0492 N   0  0  0  0  0  0  0  0  0  0  0  0
   -4.2001  -16.2347   27.7846 C   0  0  0  0  0  0  0  0  0  0  0  0
   -5.7362  -16.9236   27.4879 N   0  0  0  0  0  0  0  0  0  0  0  0
   -6.9890  -17.7534   28.5114 C   0  0  0  0  0  0  0  0  0  0  0  0
   -8.8260  -18.5039   28.6452 C   0  0  0  0  0  0  0  0  0  0  0  0
   -9.2332  -19.5124   30.4980 C   0  0  0  0  0  0  0  0  0  0  0  0
   -7.3573  -19.4441   31.6992 C   0  0  0  0  0  0  0  0  0  0  0  0
   -7.2354  -18.4458   33.6048 Br  0  0  0  0  0  0  0  0  0  0  0  0
   -5.8497  -18.4724   31.2421 C   0  0  0  0  0  0  0  0  0  0  0  0
   -5.7115  -17.7007   29.6610 C   0  0  0  0  0  0  0  0  0  0  0  0
   -4.3207  -17.1279   29.0668 N   0  0  0  0  0  0  0  0  0  0  0  0
   -2.9916  -13.1522   26.3205 H   0  0  0  0  0  0  0  0  0  0  0  0
   -2.0294  -13.9927   23.6323 H   0  0  0  0  0  0  0  0  0  0  0  0
   -2.0480  -12.2170   24.3753 H   0  0  0  0  0  0  0  0  0  0  0  0
    0.4538  -12.2259   24.3388 H   0  0  0  0  0  0  0  0  0  0  0  0
   -0.1221  -13.4418   21.4803 H   0  0  0  0  0  0  0  0  0  0  0  0
    1.4861  -10.3041   22.9214 H   0  0  0  0  0  0  0  0  0  0  0  0
    3.4197   -9.6979   21.0828 H   0  0  0  0  0  0  0  0  0  0  0  0
    3.8100  -11.4166   19.3426 H   0  0  0  0  0  0  0  0  0  0  0  0
    2.2411  -13.3438   19.9164 H   0  0  0  0  0  0  0  0  0  0  0  0
   -8.8478  -18.9757   27.6201 H   0  0  0  0  0  0  0  0  0  0  0  0
  -10.2327  -19.6770   30.9103 H   0  0  0  0  0  0  0  0  0  0  0  0
   -5.0265  -18.2946   31.9350 H   0  0  0  0  0  0  0  0  0  0  0  0
   -3.4991  -17.3406   29.5991 H   0  0  0  0  0  0  0  0  0  0  0  0
  1  2  2  0
  2  3  1  0
  3  4  1  0
  4  5  1  0
  5  6  1  0
  5  7  1  0
  7  8  2  0
  8  9  1  0
  9 10  2  0
 10 11  1  0
 11 12  2  0
  2 13  1  0
 13 14  2  0
 14 15  1  0
 15 16  2  0
 16 17  1  0
 17 18  2  0
 18 19  1  0
 18 20  1  0
 20 21  2  0
 21 22  1  0
 12  7  1  0
 22 13  1  0
 21 15  1  0
  3 23  1  0
  4 24  1  0
  4 25  1  0
  5 26  1  0
  6 27  1  0
  8 28  1  0
  9 29  1  0
 10 30  1  0
 11 31  1  0
 16 32  1  0
 17 33  1  0
 20 34  1  0
 22 35  1  0
M  END
>  <Energy>  (579) 
1588.8003567015985

>  <compound_id>  (579) 
29315

>  <target_id>  (579) 
1

>  <reference_id>  (579) 
52

>  <inspiration_ids>  (579) 
[52, 60]

>  <energy_score>  (579) 
1508.745521436852

>  <distance_score>  (579) 
11.659761299012464

>  <path>  (579) 
/opt/xchem-fragalysis-2/maxwin/BulkDock/SCRATCH/511017/C29315-P52/C29315-P52.minimised.mol

>  <scratch_subdir>  (579) 
/opt/xchem-fragalysis-2/maxwin/BulkDock/SCRATCH/511017/C29315-P52

>  <fragmenstein_runtime>  (579) 
25.491082906723022

>  <fragmenstein_outcome>  (579) 
too moved

>  <fragmenstein_mode>  (579) 
expansion

>  <fragmenstein_error>  (579) 


$$$$
C29315-P60
     RDKit          3D

 35 37  0  0  0  0  0  0  0  0999 V2000
   -3.0313  -12.9185   25.1153 O   0  0  0  0  0  0  0  0  0  0  0  0
   -2.8248  -12.8987   26.2139 C   0  0  0  0  0  0  0  0  0  0  0  0
   -2.5508  -11.0916   26.7693 N   0  0  0  0  0  0  0  0  0  0  0  0
   -2.4156   -9.2406   25.7193 C   0  0  0  0  0  0  0  0  0  0  0  0
   -1.4644   -7.8552   24.6366 C   0  0  0  0  0  0  0  0  0  0  0  0
   -1.9247   -8.3732   23.2506 O   0  0  0  0  0  0  0  0  0  0  0  0
   -0.1683   -7.2621   23.9401 C   0  0  0  0  0  0  0  0  0  0  0  0
    0.3728   -7.9301   22.8591 C   0  0  0  0  0  0  0  0  0  0  0  0
    0.7084   -7.3016   21.6873 C   0  0  0  0  0  0  0  0  0  0  0  0
    0.9991   -5.8987   21.7447 C   0  0  0  0  0  0  0  0  0  0  0  0
    0.7886   -5.3066   22.9535 C   0  0  0  0  0  0  0  0  0  0  0  0
    0.1521   -5.9466   24.0155 N   0  0  0  0  0  0  0  0  0  0  0  0
   -2.5745  -14.7187   27.2975 C   0  0  0  0  0  0  0  0  0  0  0  0
   -2.6104  -16.4889   26.9982 N   0  0  0  0  0  0  0  0  0  0  0  0
   -4.1923  -17.4843   27.3268 C   0  0  0  0  0  0  0  0  0  0  0  0
   -5.3838  -18.6484   26.8463 C   0  0  0  0  0  0  0  0  0  0  0  0
   -7.0280  -19.3054   27.2898 C   0  0  0  0  0  0  0  0  0  0  0  0
   -7.9887  -19.0349   28.4676 C   0  0  0  0  0  0  0  0  0  0  0  0
  -10.1136  -20.5000   29.3373 Br  0  0  0  0  0  0  0  0  0  0  0  0
   -6.5608  -17.8664   28.9548 C   0  0  0  0  0  0  0  0  0  0  0  0
   -4.9012  -17.0023   28.4457 C   0  0  0  0  0  0  0  0  0  0  0  0
   -3.3522  -15.9531   28.5681 N   0  0  0  0  0  0  0  0  0  0  0  0
   -2.4605  -11.0919   27.7955 H   0  0  0  0  0  0  0  0  0  0  0  0
   -1.4697   -8.8327   26.2460 H   0  0  0  0  0  0  0  0  0  0  0  0
   -3.0387   -8.4998   26.2098 H   0  0  0  0  0  0  0  0  0  0  0  0
   -0.5748   -7.9936   25.2855 H   0  0  0  0  0  0  0  0  0  0  0  0
   -2.8663   -8.1194   23.2262 H   0  0  0  0  0  0  0  0  0  0  0  0
    1.3453   -8.1055   23.3037 H   0  0  0  0  0  0  0  0  0  0  0  0
    0.6992   -7.9097   20.7845 H   0  0  0  0  0  0  0  0  0  0  0  0
    1.3991   -5.3142   20.9249 H   0  0  0  0  0  0  0  0  0  0  0  0
    1.0414   -4.2571   23.0253 H   0  0  0  0  0  0  0  0  0  0  0  0
   -5.0274  -19.1551   25.9349 H   0  0  0  0  0  0  0  0  0  0  0  0
   -7.2999  -20.1170   26.6038 H   0  0  0  0  0  0  0  0  0  0  0  0
   -6.6765  -17.5746   30.0175 H   0  0  0  0  0  0  0  0  0  0  0  0
   -3.1733  -15.6223   29.4992 H   0  0  0  0  0  0  0  0  0  0  0  0
  1  2  2  0
  2  3  1  0
  3  4  1  0
  4  5  1  0
  5  6  1  0
  5  7  1  0
  7  8  2  0
  8  9  1  0
  9 10  2  0
 10 11  1  0
 11 12  2  0
  2 13  1  0
 13 14  2  0
 14 15  1  0
 15 16  2  0
 16 17  1  0
 17 18  2  0
 18 19  1  0
 18 20  1  0
 20 21  2  0
 21 22  1  0
 12  7  1  0
 22 13  1  0
 21 15  1  0
  3 23  1  0
  4 24  1  0
  4 25  1  0
  5 26  1  0
  6 27  1  0
  8 28  1  0
  9 29  1  0
 10 30  1  0
 11 31  1  0
 16 32  1  0
 17 33  1  0
 20 34  1  0
 22 35  1  0
M  END
>  <Energy>  (580) 
1713.939454002536

>  <compound_id>  (580) 
29315

>  <target_id>  (580) 
1

>  <reference_id>  (580) 
60

>  <inspiration_ids>  (580) 
[52, 60]

>  <energy_score>  (580) 
1633.8846187377978

>  <distance_score>  (580) 
12.20620153407461

>  <path>  (580) 
/opt/xchem-fragalysis-2/maxwin/BulkDock/SCRATCH/511017/C29315-P60/C29315-P60.minimised.mol

>  <scratch_subdir>  (580) 
/opt/xchem-fragalysis-2/maxwin/BulkDock/SCRATCH/511017/C29315-P60

>  <fragmenstein_runtime>  (580) 
33.10784721374512

>  <fragmenstein_outcome>  (580) 
too moved

>  <fragmenstein_mode>  (580) 
expansion

>  <fragmenstein_error>  (580) 


$$$$
C29319-P52
     RDKit          3D

 32 35  0  0  0  0  0  0  0  0999 V2000
    5.9163   -9.9994   25.3746 C   0  0  0  0  0  0  0  0  0  0  0  0
    5.4158  -11.0173   24.5665 C   0  0  0  0  0  0  0  0  0  0  0  0
    4.1882  -12.2335   24.7997 C   0  0  0  0  0  0  0  0  0  0  0  0
    3.5287  -12.2528   26.0728 C   0  0  0  0  0  0  0  0  0  0  0  0
    2.2726  -13.4072   26.9344 C   0  0  0  0  0  0  0  0  0  0  0  0
    3.0192  -14.5402   26.9838 N   0  0  0  0  0  0  0  0  0  0  0  0
    2.2231  -15.4847   26.5582 N   0  0  0  0  0  0  0  0  0  0  0  0
    1.0796  -15.4759   27.2085 N   0  0  0  0  0  0  0  0  0  0  0  0
    0.8097  -14.2422   27.6388 N   0  0  0  0  0  0  0  0  0  0  0  0
   -1.1814  -13.9851   27.4968 C   0  0  0  0  0  0  0  0  0  0  0  0
   -2.6524  -15.1506   26.8818 C   0  0  0  0  0  0  0  0  0  0  0  0
   -2.8868  -15.9687   25.7520 C   0  0  0  0  0  0  0  0  0  0  0  0
   -3.8721  -17.0079   25.5284 C   0  0  0  0  0  0  0  0  0  0  0  0
   -4.9419  -17.1012   26.3915 C   0  0  0  0  0  0  0  0  0  0  0  0
   -6.0574  -17.8870   26.4241 N   0  0  0  0  0  0  0  0  0  0  0  0
   -6.8598  -17.4051   27.4150 C   0  0  0  0  0  0  0  0  0  0  0  0
   -6.2803  -16.4314   28.0862 N   0  0  0  0  0  0  0  0  0  0  0  0
   -5.0817  -16.2132   27.4326 C   0  0  0  0  0  0  0  0  0  0  0  0
   -3.9781  -15.3029   27.6624 C   0  0  0  0  0  0  0  0  0  0  0  0
    4.2908  -11.0325   26.8092 N   0  0  0  0  0  0  0  0  0  0  0  0
    5.2240   -9.9828   26.5108 C   0  0  0  0  0  0  0  0  0  0  0  0
    6.6646   -9.2809   25.0898 H   0  0  0  0  0  0  0  0  0  0  0  0
    5.8861  -10.8175   23.5996 H   0  0  0  0  0  0  0  0  0  0  0  0
    4.0143  -12.9541   24.0156 H   0  0  0  0  0  0  0  0  0  0  0  0
   -1.3038  -13.1810   26.8143 H   0  0  0  0  0  0  0  0  0  0  0  0
   -1.3224  -13.4625   28.4787 H   0  0  0  0  0  0  0  0  0  0  0  0
   -2.6127  -15.6641   24.7550 H   0  0  0  0  0  0  0  0  0  0  0  0
   -3.8515  -17.5698   24.5965 H   0  0  0  0  0  0  0  0  0  0  0  0
   -6.2786  -18.6382   25.7862 H   0  0  0  0  0  0  0  0  0  0  0  0
   -7.8419  -17.8192   27.5733 H   0  0  0  0  0  0  0  0  0  0  0  0
   -4.1365  -14.7697   28.6023 H   0  0  0  0  0  0  0  0  0  0  0  0
    5.3567   -9.2573   27.3076 H   0  0  0  0  0  0  0  0  0  0  0  0
  1  2  2  0
  2  3  1  0
  3  4  2  0
  4  5  1  0
  5  6  2  0
  6  7  1  0
  7  8  2  0
  8  9  1  0
  9 10  1  0
 10 11  1  0
 11 12  2  0
 12 13  1  0
 13 14  2  0
 14 15  1  0
 15 16  1  0
 16 17  2  0
 17 18  1  0
 18 19  2  0
  4 20  1  0
 20 21  2  0
 21  1  1  0
  9  5  1  0
 19 11  1  0
 18 14  1  0
  1 22  1  0
  2 23  1  0
  3 24  1  0
 10 25  1  0
 10 26  1  0
 12 27  1  0
 13 28  1  0
 15 29  1  0
 16 30  1  0
 19 31  1  0
 21 32  1  0
M  END
>  <Energy>  (581) 
559.89303066088769

>  <compound_id>  (581) 
29319

>  <target_id>  (581) 
1

>  <reference_id>  (581) 
52

>  <inspiration_ids>  (581) 
[52, 60]

>  <energy_score>  (581) 
502.0675583640923

>  <distance_score>  (581) 
13.15485600012086

>  <path>  (581) 
/opt/xchem-fragalysis-2/maxwin/BulkDock/SCRATCH/511017/C29319-P52/C29319-P52.minimised.mol

>  <scratch_subdir>  (581) 
/opt/xchem-fragalysis-2/maxwin/BulkDock/SCRATCH/511017/C29319-P52

>  <fragmenstein_runtime>  (581) 
14.49536418914795

>  <fragmenstein_outcome>  (581) 
too moved

>  <fragmenstein_mode>  (581) 
expansion

>  <fragmenstein_error>  (581) 


$$$$
C29319-P60
     RDKit          3D

 32 35  0  0  0  0  0  0  0  0999 V2000
    4.4867  -14.8659   25.4463 C   0  0  0  0  0  0  0  0  0  0  0  0
    4.4866  -15.9462   24.5074 C   0  0  0  0  0  0  0  0  0  0  0  0
    3.6345  -17.4273   25.3142 C   0  0  0  0  0  0  0  0  0  0  0  0
    3.0193  -17.4862   26.7272 C   0  0  0  0  0  0  0  0  0  0  0  0
    2.5796  -18.8469   27.2068 C   0  0  0  0  0  0  0  0  0  0  0  0
    2.6854  -19.8918   26.3814 N   0  0  0  0  0  0  0  0  0  0  0  0
    2.6275  -21.0281   27.1191 N   0  0  0  0  0  0  0  0  0  0  0  0
    2.4514  -20.7377   28.3884 N   0  0  0  0  0  0  0  0  0  0  0  0
    2.2173  -19.4015   28.4309 N   0  0  0  0  0  0  0  0  0  0  0  0
    1.7349  -18.8702   29.6988 C   0  0  0  0  0  0  0  0  0  0  0  0
    0.5479  -19.6317   30.3854 C   0  0  0  0  0  0  0  0  0  0  0  0
    0.1766  -19.2296   31.6923 C   0  0  0  0  0  0  0  0  0  0  0  0
   -0.9554  -19.7309   32.3652 C   0  0  0  0  0  0  0  0  0  0  0  0
   -1.6857  -20.7109   31.7033 C   0  0  0  0  0  0  0  0  0  0  0  0
   -2.7938  -21.4289   32.0556 N   0  0  0  0  0  0  0  0  0  0  0  0
   -2.9464  -22.4149   31.1304 C   0  0  0  0  0  0  0  0  0  0  0  0
   -2.1830  -22.2262   30.0816 N   0  0  0  0  0  0  0  0  0  0  0  0
   -1.3534  -21.1899   30.4423 C   0  0  0  0  0  0  0  0  0  0  0  0
   -0.2551  -20.6208   29.7595 C   0  0  0  0  0  0  0  0  0  0  0  0
    3.2864  -16.4054   27.5342 N   0  0  0  0  0  0  0  0  0  0  0  0
    3.9797  -15.1774   26.8699 C   0  0  0  0  0  0  0  0  0  0  0  0
    4.7754  -13.8588   25.3229 H   0  0  0  0  0  0  0  0  0  0  0  0
    4.4887  -15.8420   23.4670 H   0  0  0  0  0  0  0  0  0  0  0  0
    3.2823  -18.2755   24.7226 H   0  0  0  0  0  0  0  0  0  0  0  0
    2.5968  -18.8938   30.3768 H   0  0  0  0  0  0  0  0  0  0  0  0
    1.4581  -17.8271   29.5282 H   0  0  0  0  0  0  0  0  0  0  0  0
    0.7611  -18.4597   32.1967 H   0  0  0  0  0  0  0  0  0  0  0  0
   -1.2265  -19.3768   33.3536 H   0  0  0  0  0  0  0  0  0  0  0  0
   -3.3100  -21.3261   32.9118 H   0  0  0  0  0  0  0  0  0  0  0  0
   -3.6228  -23.2381   31.2768 H   0  0  0  0  0  0  0  0  0  0  0  0
   -0.0480  -20.9854   28.7588 H   0  0  0  0  0  0  0  0  0  0  0  0
    3.9811  -14.3142   27.4829 H   0  0  0  0  0  0  0  0  0  0  0  0
  1  2  2  0
  2  3  1  0
  3  4  2  0
  4  5  1  0
  5  6  2  0
  6  7  1  0
  7  8  2  0
  8  9  1  0
  9 10  1  0
 10 11  1  0
 11 12  2  0
 12 13  1  0
 13 14  2  0
 14 15  1  0
 15 16  1  0
 16 17  2  0
 17 18  1  0
 18 19  2  0
  4 20  1  0
 20 21  2  0
 21  1  1  0
  9  5  1  0
 19 11  1  0
 18 14  1  0
  1 22  1  0
  2 23  1  0
  3 24  1  0
 10 25  1  0
 10 26  1  0
 12 27  1  0
 13 28  1  0
 15 29  1  0
 16 30  1  0
 19 31  1  0
 21 32  1  0
M  END
>  <Energy>  (582) 
167.32666564515219

>  <compound_id>  (582) 
29319

>  <target_id>  (582) 
1

>  <reference_id>  (582) 
60

>  <inspiration_ids>  (582) 
[52, 60]

>  <energy_score>  (582) 
109.50119334835449

>  <distance_score>  (582) 
15.018645845116186

>  <path>  (582) 
/opt/xchem-fragalysis-2/maxwin/BulkDock/SCRATCH/511017/C29319-P60/C29319-P60.minimised.mol

>  <scratch_subdir>  (582) 
/opt/xchem-fragalysis-2/maxwin/BulkDock/SCRATCH/511017/C29319-P60

>  <fragmenstein_runtime>  (582) 
14.313667297363281

>  <fragmenstein_outcome>  (582) 
too moved

>  <fragmenstein_mode>  (582) 
expansion

>  <fragmenstein_error>  (582) 


$$$$
C29322-P52
     RDKit          3D

 44 47  0  0  0  0  0  0  0  0999 V2000
   -4.9647  -21.5748   26.7791 C   0  0  0  0  0  0  0  0  0  0  0  0
   -5.7436  -20.5393   27.7149 C   0  0  0  0  0  0  0  0  0  0  0  0
   -4.2841  -19.4514   27.1768 C   0  0  0  0  0  0  0  0  0  0  0  0
   -4.2618  -18.4683   26.1521 C   0  0  0  0  0  0  0  0  0  0  0  0
   -3.1107  -17.7069   25.8188 C   0  0  0  0  0  0  0  0  0  0  0  0
   -1.9315  -17.9227   26.4982 C   0  0  0  0  0  0  0  0  0  0  0  0
   -1.9763  -18.8947   27.4790 C   0  0  0  0  0  0  0  0  0  0  0  0
   -3.0888  -19.6410   27.8293 N   0  0  0  0  0  0  0  0  0  0  0  0
   -7.6558  -20.6668   27.6383 N   0  0  0  0  0  0  0  0  0  0  0  0
   -7.7575  -22.0365   27.3749 C   0  0  0  0  0  0  0  0  0  0  0  0
   -9.2302  -23.0414   27.6061 C   0  0  0  0  0  0  0  0  0  0  0  0
   -9.5873  -22.9502   28.9937 N   0  0  0  0  0  0  0  0  0  0  0  0
  -10.4137  -23.9972   29.5107 C   0  0  0  0  0  0  0  0  0  0  0  0
  -10.7836  -23.7762   30.8416 C   0  0  0  0  0  0  0  0  0  0  0  0
  -12.0599  -23.2964   31.0149 C   0  0  0  0  0  0  0  0  0  0  0  0
  -12.9759  -23.3569   29.9573 C   0  0  0  0  0  0  0  0  0  0  0  0
  -12.6897  -24.2238   28.9062 C   0  0  0  0  0  0  0  0  0  0  0  0
  -13.3937  -24.7688   27.8656 N   0  0  0  0  0  0  0  0  0  0  0  0
  -12.5074  -25.4167   27.0511 C   0  0  0  0  0  0  0  0  0  0  0  0
  -11.2773  -25.2957   27.4912 N   0  0  0  0  0  0  0  0  0  0  0  0
  -11.3804  -24.6221   28.6867 C   0  0  0  0  0  0  0  0  0  0  0  0
  -10.3384  -21.7326   28.9799 C   0  0  0  0  0  0  0  0  0  0  0  0
   -9.4229  -20.6873   28.3284 C   0  0  0  0  0  0  0  0  0  0  0  0
   -4.4456  -21.1684   25.8963 H   0  0  0  0  0  0  0  0  0  0  0  0
   -5.5565  -22.3160   26.2754 H   0  0  0  0  0  0  0  0  0  0  0  0
   -4.1732  -22.0478   27.3698 H   0  0  0  0  0  0  0  0  0  0  0  0
   -6.1024  -19.5561   27.4354 H   0  0  0  0  0  0  0  0  0  0  0  0
   -5.1324  -18.2407   25.5809 H   0  0  0  0  0  0  0  0  0  0  0  0
   -3.1830  -16.9689   25.0275 H   0  0  0  0  0  0  0  0  0  0  0  0
   -1.0196  -17.3823   26.2885 H   0  0  0  0  0  0  0  0  0  0  0  0
   -1.0878  -19.1354   28.0589 H   0  0  0  0  0  0  0  0  0  0  0  0
   -7.3669  -22.2797   26.3933 H   0  0  0  0  0  0  0  0  0  0  0  0
   -6.9768  -22.1750   28.0788 H   0  0  0  0  0  0  0  0  0  0  0  0
   -9.1374  -24.0978   27.5131 H   0  0  0  0  0  0  0  0  0  0  0  0
  -10.0285  -22.7940   26.8919 H   0  0  0  0  0  0  0  0  0  0  0  0
  -10.0275  -23.5142   31.5803 H   0  0  0  0  0  0  0  0  0  0  0  0
  -12.3242  -22.7789   31.9363 H   0  0  0  0  0  0  0  0  0  0  0  0
  -13.9007  -22.8269   30.0742 H   0  0  0  0  0  0  0  0  0  0  0  0
  -14.3890  -24.6972   27.7058 H   0  0  0  0  0  0  0  0  0  0  0  0
  -12.8066  -25.9333   26.1472 H   0  0  0  0  0  0  0  0  0  0  0  0
  -11.2631  -21.8002   28.3821 H   0  0  0  0  0  0  0  0  0  0  0  0
  -10.6740  -21.3731   29.9634 H   0  0  0  0  0  0  0  0  0  0  0  0
   -9.7902  -19.8531   28.9580 H   0  0  0  0  0  0  0  0  0  0  0  0
  -10.0637  -20.4511   27.4823 H   0  0  0  0  0  0  0  0  0  0  0  0
  1  2  1  0
  2  3  1  0
  3  4  2  0
  4  5  1  0
  5  6  2  0
  6  7  1  0
  7  8  2  0
  2  9  1  0
  9 10  1  0
 10 11  1  0
 11 12  1  0
 12 13  1  0
 13 14  2  0
 14 15  1  0
 15 16  2  0
 16 17  1  0
 17 18  1  0
 18 19  1  0
 19 20  2  0
 20 21  1  0
 12 22  1  0
 22 23  1  0
  8  3  1  0
 23  9  1  0
 21 13  1  0
 21 17  2  0
  1 24  1  0
  1 25  1  0
  1 26  1  0
  2 27  1  0
  4 28  1  0
  5 29  1  0
  6 30  1  0
  7 31  1  0
 10 32  1  0
 10 33  1  0
 11 34  1  0
 11 35  1  0
 14 36  1  0
 15 37  1  0
 16 38  1  0
 18 39  1  0
 19 40  1  0
 22 41  1  0
 22 42  1  0
 23 43  1  0
 23 44  1  0
M  END
>  <Energy>  (583) 
579.54638886662724

>  <compound_id>  (583) 
29322

>  <target_id>  (583) 
1

>  <reference_id>  (583) 
52

>  <inspiration_ids>  (583) 
[52, 60]

>  <energy_score>  (583) 
382.29903149671156

>  <distance_score>  (583) 
14.99005304203068

>  <path>  (583) 
/opt/xchem-fragalysis-2/maxwin/BulkDock/SCRATCH/511017/C29322-P52/C29322-P52.minimised.mol

>  <scratch_subdir>  (583) 
/opt/xchem-fragalysis-2/maxwin/BulkDock/SCRATCH/511017/C29322-P52

>  <fragmenstein_runtime>  (583) 
18.4128897190094

>  <fragmenstein_outcome>  (583) 
too moved

>  <fragmenstein_mode>  (583) 
expansion

>  <fragmenstein_error>  (583) 


$$$$
C29322-P60
     RDKit          3D

 44 47  0  0  0  0  0  0  0  0999 V2000
   -3.3488  -12.1939   25.4161 C   0  0  0  0  0  0  0  0  0  0  0  0
   -4.9578  -11.8617   24.2481 C   0  0  0  0  0  0  0  0  0  0  0  0
   -4.0441  -10.3768   23.0127 C   0  0  0  0  0  0  0  0  0  0  0  0
   -3.0242   -9.3601   23.0671 C   0  0  0  0  0  0  0  0  0  0  0  0
   -2.0162   -9.1147   22.0203 C   0  0  0  0  0  0  0  0  0  0  0  0
   -2.3456   -9.3495   20.7134 C   0  0  0  0  0  0  0  0  0  0  0  0
   -3.6156   -9.8228   20.5387 C   0  0  0  0  0  0  0  0  0  0  0  0
   -4.4413  -10.2439   21.5671 N   0  0  0  0  0  0  0  0  0  0  0  0
   -6.6647  -12.9522   24.7164 N   0  0  0  0  0  0  0  0  0  0  0  0
   -7.5621  -13.3680   26.3433 C   0  0  0  0  0  0  0  0  0  0  0  0
   -8.6842  -14.7363   27.3523 C   0  0  0  0  0  0  0  0  0  0  0  0
   -9.4931  -16.5345   27.0463 N   0  0  0  0  0  0  0  0  0  0  0  0
  -11.0166  -17.5929   27.8019 C   0  0  0  0  0  0  0  0  0  0  0  0
  -10.8033  -18.4709   28.8811 C   0  0  0  0  0  0  0  0  0  0  0  0
  -10.5484  -20.3410   29.5519 C   0  0  0  0  0  0  0  0  0  0  0  0
  -10.4586  -21.4368   28.8211 C   0  0  0  0  0  0  0  0  0  0  0  0
  -11.6490  -20.8908   28.7699 C   0  0  0  0  0  0  0  0  0  0  0  0
  -12.5055  -21.8842   28.5556 N   0  0  0  0  0  0  0  0  0  0  0  0
  -12.8714  -21.3679   29.6908 C   0  0  0  0  0  0  0  0  0  0  0  0
  -13.1355  -19.8831   29.1374 N   0  0  0  0  0  0  0  0  0  0  0  0
  -12.0022  -19.0555   28.6298 C   0  0  0  0  0  0  0  0  0  0  0  0
   -8.6508  -15.9973   25.4260 C   0  0  0  0  0  0  0  0  0  0  0  0
   -7.4897  -14.6226   24.4453 C   0  0  0  0  0  0  0  0  0  0  0  0
   -3.6448  -12.2630   26.4917 H   0  0  0  0  0  0  0  0  0  0  0  0
   -2.8229  -13.1312   25.3722 H   0  0  0  0  0  0  0  0  0  0  0  0
   -2.5182  -11.5454   25.4422 H   0  0  0  0  0  0  0  0  0  0  0  0
   -5.7967  -11.4805   24.8773 H   0  0  0  0  0  0  0  0  0  0  0  0
   -3.6284   -8.4408   22.7740 H   0  0  0  0  0  0  0  0  0  0  0  0
   -1.0725   -8.6368   22.2665 H   0  0  0  0  0  0  0  0  0  0  0  0
   -1.6941   -9.1008   19.8894 H   0  0  0  0  0  0  0  0  0  0  0  0
   -4.0491   -9.9337   19.5504 H   0  0  0  0  0  0  0  0  0  0  0  0
   -8.3192  -12.5755   26.2483 H   0  0  0  0  0  0  0  0  0  0  0  0
   -6.8412  -13.0056   27.0879 H   0  0  0  0  0  0  0  0  0  0  0  0
   -9.5415  -14.1149   27.6585 H   0  0  0  0  0  0  0  0  0  0  0  0
   -7.9523  -14.9671   28.1236 H   0  0  0  0  0  0  0  0  0  0  0  0
  -11.0728  -17.7504   29.6803 H   0  0  0  0  0  0  0  0  0  0  0  0
  -10.5596  -20.5397   30.6709 H   0  0  0  0  0  0  0  0  0  0  0  0
  -10.4001  -22.4870   28.6985 H   0  0  0  0  0  0  0  0  0  0  0  0
  -12.8834  -22.1099   27.6474 H   0  0  0  0  0  0  0  0  0  0  0  0
  -13.3366  -21.8650   30.5544 H   0  0  0  0  0  0  0  0  0  0  0  0
   -9.0122  -15.0684   25.6771 H   0  0  0  0  0  0  0  0  0  0  0  0
   -9.4459  -16.4320   24.8125 H   0  0  0  0  0  0  0  0  0  0  0  0
   -8.1935  -14.1343   23.7607 H   0  0  0  0  0  0  0  0  0  0  0  0
   -6.8802  -15.1051   23.6671 H   0  0  0  0  0  0  0  0  0  0  0  0
  1  2  1  0
  2  3  1  0
  3  4  2  0
  4  5  1  0
  5  6  2  0
  6  7  1  0
  7  8  2  0
  2  9  1  0
  9 10  1  0
 10 11  1  0
 11 12  1  0
 12 13  1  0
 13 14  2  0
 14 15  1  0
 15 16  2  0
 16 17  1  0
 17 18  1  0
 18 19  1  0
 19 20  2  0
 20 21  1  0
 12 22  1  0
 22 23  1  0
  8  3  1  0
 23  9  1  0
 21 13  1  0
 21 17  2  0
  1 24  1  0
  1 25  1  0
  1 26  1  0
  2 27  1  0
  4 28  1  0
  5 29  1  0
  6 30  1  0
  7 31  1  0
 10 32  1  0
 10 33  1  0
 11 34  1  0
 11 35  1  0
 14 36  1  0
 15 37  1  0
 16 38  1  0
 18 39  1  0
 19 40  1  0
 22 41  1  0
 22 42  1  0
 23 43  1  0
 23 44  1  0
M  END
>  <Energy>  (584) 
2210.7548384371507

>  <compound_id>  (584) 
29322

>  <target_id>  (584) 
1

>  <reference_id>  (584) 
60

>  <inspiration_ids>  (584) 
[52, 60]

>  <energy_score>  (584) 
2013.5074810672363

>  <distance_score>  (584) 
12.791178908170423

>  <path>  (584) 
/opt/xchem-fragalysis-2/maxwin/BulkDock/SCRATCH/511017/C29322-P60/C29322-P60.minimised.mol

>  <scratch_subdir>  (584) 
/opt/xchem-fragalysis-2/maxwin/BulkDock/SCRATCH/511017/C29322-P60

>  <fragmenstein_runtime>  (584) 
41.61877918243408

>  <fragmenstein_outcome>  (584) 
too moved

>  <fragmenstein_mode>  (584) 
expansion

>  <fragmenstein_error>  (584) 


$$$$
C29323-P52
     RDKit          3D

 32 34  0  0  0  0  0  0  0  0999 V2000
    3.9831   -8.9544   21.3502 O   0  0  0  0  0  0  0  0  0  0  0  0
    3.7896  -10.0183   20.8670 C   0  0  0  0  0  0  0  0  0  0  0  0
    2.7681  -11.1003   21.2089 N   0  0  0  0  0  0  0  0  0  0  0  0
    1.3732  -11.1633   22.3785 N   0  0  0  0  0  0  0  0  0  0  0  0
    0.3904  -12.6250   23.0357 C   0  0  0  0  0  0  0  0  0  0  0  0
    0.8759  -13.5456   22.6875 O   0  0  0  0  0  0  0  0  0  0  0  0
   -1.3776  -13.0758   23.9527 C   0  0  0  0  0  0  0  0  0  0  0  0
   -2.2679  -13.5080   25.3358 N   0  0  0  0  0  0  0  0  0  0  0  0
   -2.9632  -15.2537   25.6118 C   0  0  0  0  0  0  0  0  0  0  0  0
   -4.1344  -16.1896   26.9373 C   0  0  0  0  0  0  0  0  0  0  0  0
   -5.8844  -17.0346   26.6000 C   0  0  0  0  0  0  0  0  0  0  0  0
   -6.9170  -16.4911   25.0207 C   0  0  0  0  0  0  0  0  0  0  0  0
   -6.0137  -15.1789   23.8178 C   0  0  0  0  0  0  0  0  0  0  0  0
   -4.1094  -14.6975   24.2205 C   0  0  0  0  0  0  0  0  0  0  0  0
   -2.6721  -14.2181   23.5380 N   0  0  0  0  0  0  0  0  0  0  0  0
    5.0170  -10.5020   19.5046 C   0  0  0  0  0  0  0  0  0  0  0  0
    4.8982  -11.4208   18.4794 C   0  0  0  0  0  0  0  0  0  0  0  0
    5.9491  -11.5937   17.5552 C   0  0  0  0  0  0  0  0  0  0  0  0
    7.1547  -10.9241   17.7050 C   0  0  0  0  0  0  0  0  0  0  0  0
    7.2844  -10.1286   18.8116 C   0  0  0  0  0  0  0  0  0  0  0  0
    6.2782   -9.9332   19.6988 N   0  0  0  0  0  0  0  0  0  0  0  0
    2.8302  -11.8570   20.5285 H   0  0  0  0  0  0  0  0  0  0  0  0
    0.8800  -10.3325   22.6262 H   0  0  0  0  0  0  0  0  0  0  0  0
   -3.5221  -16.8663   27.5487 H   0  0  0  0  0  0  0  0  0  0  0  0
   -6.2793  -17.7746   27.2912 H   0  0  0  0  0  0  0  0  0  0  0  0
   -7.8838  -16.9127   24.7782 H   0  0  0  0  0  0  0  0  0  0  0  0
   -6.3722  -14.9284   22.8225 H   0  0  0  0  0  0  0  0  0  0  0  0
   -2.0812  -14.9203   23.8153 H   0  0  0  0  0  0  0  0  0  0  0  0
    3.9765  -11.9492   18.3017 H   0  0  0  0  0  0  0  0  0  0  0  0
    5.8035  -12.2673   16.7133 H   0  0  0  0  0  0  0  0  0  0  0  0
    7.9665  -11.0553   16.9994 H   0  0  0  0  0  0  0  0  0  0  0  0
    8.2121   -9.6116   19.0340 H   0  0  0  0  0  0  0  0  0  0  0  0
  1  2  2  0
  2  3  1  0
  3  4  1  0
  4  5  1  0
  5  6  2  0
  5  7  1  0
  7  8  2  0
  8  9  1  0
  9 10  2  0
 10 11  1  0
 11 12  2  0
 12 13  1  0
 13 14  2  0
 14 15  1  0
  2 16  1  0
 16 17  2  0
 17 18  1  0
 18 19  2  0
 19 20  1  0
 20 21  2  0
 15  7  1  0
 21 16  1  0
 14  9  1  0
  3 22  1  0
  4 23  1  0
 10 24  1  0
 11 25  1  0
 12 26  1  0
 13 27  1  0
 15 28  1  0
 17 29  1  0
 18 30  1  0
 19 31  1  0
 20 32  1  0
M  END
>  <Energy>  (585) 
1381.649331980424

>  <compound_id>  (585) 
29323

>  <target_id>  (585) 
1

>  <reference_id>  (585) 
52

>  <inspiration_ids>  (585) 
[52, 60]

>  <energy_score>  (585) 
1263.018517189398

>  <distance_score>  (585) 
12.428965143473745

>  <path>  (585) 
/opt/xchem-fragalysis-2/maxwin/BulkDock/SCRATCH/511017/C29323-P52/C29323-P52.minimised.mol

>  <scratch_subdir>  (585) 
/opt/xchem-fragalysis-2/maxwin/BulkDock/SCRATCH/511017/C29323-P52

>  <fragmenstein_runtime>  (585) 
26.091747999191284

>  <fragmenstein_outcome>  (585) 
too moved

>  <fragmenstein_mode>  (585) 
expansion

>  <fragmenstein_error>  (585) 


$$$$
C29323-P60
     RDKit          3D

 32 34  0  0  0  0  0  0  0  0999 V2000
    1.4137  -11.7953   22.8480 O   0  0  0  0  0  0  0  0  0  0  0  0
    2.2785  -12.0281   23.5874 C   0  0  0  0  0  0  0  0  0  0  0  0
    1.5332  -12.9631   25.1913 N   0  0  0  0  0  0  0  0  0  0  0  0
   -0.4201  -13.4199   25.7638 N   0  0  0  0  0  0  0  0  0  0  0  0
   -1.1306  -14.5146   27.1928 C   0  0  0  0  0  0  0  0  0  0  0  0
   -0.3183  -14.8586   27.8296 O   0  0  0  0  0  0  0  0  0  0  0  0
   -2.3328  -15.1435   27.6438 C   0  0  0  0  0  0  0  0  0  0  0  0
   -2.5515  -15.1410   29.0263 N   0  0  0  0  0  0  0  0  0  0  0  0
   -3.0399  -16.3377   29.5677 C   0  0  0  0  0  0  0  0  0  0  0  0
   -3.5561  -16.6330   30.8461 C   0  0  0  0  0  0  0  0  0  0  0  0
   -4.0725  -17.9133   31.0952 C   0  0  0  0  0  0  0  0  0  0  0  0
   -4.0480  -18.8859   30.0967 C   0  0  0  0  0  0  0  0  0  0  0  0
   -3.5299  -18.6088   28.8221 C   0  0  0  0  0  0  0  0  0  0  0  0
   -3.0430  -17.3105   28.6059 C   0  0  0  0  0  0  0  0  0  0  0  0
   -2.4258  -16.6935   27.5403 N   0  0  0  0  0  0  0  0  0  0  0  0
    4.0657  -11.2567   22.7540 C   0  0  0  0  0  0  0  0  0  0  0  0
    4.7305   -9.7772   23.4366 C   0  0  0  0  0  0  0  0  0  0  0  0
    5.8589   -9.1088   24.7457 C   0  0  0  0  0  0  0  0  0  0  0  0
    6.9749   -9.8411   25.0712 C   0  0  0  0  0  0  0  0  0  0  0  0
    6.8607  -11.0048   24.3675 C   0  0  0  0  0  0  0  0  0  0  0  0
    5.6415  -11.4203   23.5491 N   0  0  0  0  0  0  0  0  0  0  0  0
    2.2768  -13.0802   25.8531 H   0  0  0  0  0  0  0  0  0  0  0  0
   -1.1687  -13.1894   25.1467 H   0  0  0  0  0  0  0  0  0  0  0  0
   -3.5757  -15.8616   31.6077 H   0  0  0  0  0  0  0  0  0  0  0  0
   -4.4957  -18.1498   32.0689 H   0  0  0  0  0  0  0  0  0  0  0  0
   -4.4340  -19.8750   30.3266 H   0  0  0  0  0  0  0  0  0  0  0  0
   -3.5002  -19.3715   28.0536 H   0  0  0  0  0  0  0  0  0  0  0  0
   -2.2539  -17.1719   26.6774 H   0  0  0  0  0  0  0  0  0  0  0  0
    4.4166   -8.7007   23.0723 H   0  0  0  0  0  0  0  0  0  0  0  0
    5.7520   -8.0422   24.9635 H   0  0  0  0  0  0  0  0  0  0  0  0
    7.8050   -9.5254   25.6709 H   0  0  0  0  0  0  0  0  0  0  0  0
    7.6167  -11.7850   24.3782 H   0  0  0  0  0  0  0  0  0  0  0  0
  1  2  2  0
  2  3  1  0
  3  4  1  0
  4  5  1  0
  5  6  2  0
  5  7  1  0
  7  8  2  0
  8  9  1  0
  9 10  2  0
 10 11  1  0
 11 12  2  0
 12 13  1  0
 13 14  2  0
 14 15  1  0
  2 16  1  0
 16 17  2  0
 17 18  1  0
 18 19  2  0
 19 20  1  0
 20 21  2  0
 15  7  1  0
 21 16  1  0
 14  9  1  0
  3 22  1  0
  4 23  1  0
 10 24  1  0
 11 25  1  0
 12 26  1  0
 13 27  1  0
 15 28  1  0
 17 29  1  0
 18 30  1  0
 19 31  1  0
 20 32  1  0
M  END
>  <Energy>  (586) 
1024.435536757823

>  <compound_id>  (586) 
29323

>  <target_id>  (586) 
1

>  <reference_id>  (586) 
60

>  <inspiration_ids>  (586) 
[52, 60]

>  <energy_score>  (586) 
905.8047219667837

>  <distance_score>  (586) 
11.943030654443563

>  <path>  (586) 
/opt/xchem-fragalysis-2/maxwin/BulkDock/SCRATCH/511017/C29323-P60/C29323-P60.minimised.mol

>  <scratch_subdir>  (586) 
/opt/xchem-fragalysis-2/maxwin/BulkDock/SCRATCH/511017/C29323-P60

>  <fragmenstein_runtime>  (586) 
27.78488540649414

>  <fragmenstein_outcome>  (586) 
too moved

>  <fragmenstein_mode>  (586) 
expansion

>  <fragmenstein_error>  (586) 


$$$$
C29324-P52
     RDKit          3D

 46 49  0  0  0  0  0  0  0  0999 V2000
    0.1102  -17.6155   18.5147 O   0  0  0  0  0  0  0  0  0  0  0  0
   -0.0920  -16.7260   19.2233 C   0  0  0  0  0  0  0  0  0  0  0  0
    0.5565  -15.1824   19.2427 N   0  0  0  0  0  0  0  0  0  0  0  0
    1.8282  -14.2497   17.9578 C   0  0  0  0  0  0  0  0  0  0  0  0
    3.1546  -12.8610   18.0047 C   0  0  0  0  0  0  0  0  0  0  0  0
    3.3191  -12.0553   19.3252 C   0  0  0  0  0  0  0  0  0  0  0  0
    4.1423  -11.0406   19.6783 C   0  0  0  0  0  0  0  0  0  0  0  0
    5.2265  -10.8819   19.0101 C   0  0  0  0  0  0  0  0  0  0  0  0
    4.7648  -11.1735   17.8370 C   0  0  0  0  0  0  0  0  0  0  0  0
    3.5091  -11.8843   17.3101 N   0  0  0  0  0  0  0  0  0  0  0  0
   -1.1129  -16.5303   20.5682 N   0  0  0  0  0  0  0  0  0  0  0  0
   -1.8762  -17.2836   21.2655 C   0  0  0  0  0  0  0  0  0  0  0  0
   -2.3017  -16.2813   22.7680 C   0  0  0  0  0  0  0  0  0  0  0  0
   -3.3733  -17.1028   23.3939 C   0  0  0  0  0  0  0  0  0  0  0  0
   -2.7970  -18.4009   22.9028 C   0  0  0  0  0  0  0  0  0  0  0  0
   -3.5134  -19.5414   23.3940 N   0  0  0  0  0  0  0  0  0  0  0  0
   -4.0834  -20.5473   22.6795 C   0  0  0  0  0  0  0  0  0  0  0  0
   -4.2810  -21.6104   23.4275 N   0  0  0  0  0  0  0  0  0  0  0  0
   -3.8701  -21.2564   24.6853 C   0  0  0  0  0  0  0  0  0  0  0  0
   -3.8189  -22.0128   25.8548 C   0  0  0  0  0  0  0  0  0  0  0  0
   -3.4220  -21.4481   27.0672 C   0  0  0  0  0  0  0  0  0  0  0  0
   -3.0586  -20.1117   27.1052 C   0  0  0  0  0  0  0  0  0  0  0  0
   -3.0554  -19.3342   25.9369 C   0  0  0  0  0  0  0  0  0  0  0  0
   -3.4634  -19.9367   24.7304 C   0  0  0  0  0  0  0  0  0  0  0  0
   -2.4193  -17.9412   21.1242 C   0  0  0  0  0  0  0  0  0  0  0  0
    0.2391  -14.7101   20.0049 H   0  0  0  0  0  0  0  0  0  0  0  0
    2.0503  -13.9932   18.9779 H   0  0  0  0  0  0  0  0  0  0  0  0
    2.3737  -14.9806   17.3348 H   0  0  0  0  0  0  0  0  0  0  0  0
    2.7381  -12.3791   20.1659 H   0  0  0  0  0  0  0  0  0  0  0  0
    3.7731  -10.3920   20.4758 H   0  0  0  0  0  0  0  0  0  0  0  0
    5.8293  -10.0434   19.0976 H   0  0  0  0  0  0  0  0  0  0  0  0
    5.2143  -10.4473   17.2052 H   0  0  0  0  0  0  0  0  0  0  0  0
   -2.5615  -16.2728   20.8399 H   0  0  0  0  0  0  0  0  0  0  0  0
   -0.8408  -17.5382   21.8296 H   0  0  0  0  0  0  0  0  0  0  0  0
   -2.6152  -15.2652   22.4989 H   0  0  0  0  0  0  0  0  0  0  0  0
   -1.4132  -16.2131   23.4065 H   0  0  0  0  0  0  0  0  0  0  0  0
   -4.3549  -16.9065   22.9502 H   0  0  0  0  0  0  0  0  0  0  0  0
   -3.4331  -16.9581   24.4716 H   0  0  0  0  0  0  0  0  0  0  0  0
   -1.7897  -18.5645   23.3329 H   0  0  0  0  0  0  0  0  0  0  0  0
   -4.2874  -20.4893   21.6177 H   0  0  0  0  0  0  0  0  0  0  0  0
   -4.0691  -23.0440   25.7353 H   0  0  0  0  0  0  0  0  0  0  0  0
   -3.3587  -22.0570   27.9613 H   0  0  0  0  0  0  0  0  0  0  0  0
   -2.7183  -19.6699   28.0388 H   0  0  0  0  0  0  0  0  0  0  0  0
   -2.7086  -18.3081   25.9809 H   0  0  0  0  0  0  0  0  0  0  0  0
   -2.0461  -18.9761   20.6295 H   0  0  0  0  0  0  0  0  0  0  0  0
   -3.4601  -17.8744   20.5293 H   0  0  0  0  0  0  0  0  0  0  0  0
  1  2  2  0
  2  3  1  0
  3  4  1  0
  4  5  1  0
  5  6  2  0
  6  7  1  0
  7  8  2  0
  8  9  1  0
  9 10  2  0
  2 11  1  0
 11 12  1  0
 12 13  1  0
 13 14  1  0
 14 15  1  0
 15 16  1  0
 16 17  1  0
 17 18  2  0
 18 19  1  0
 19 20  2  0
 20 21  1  0
 21 22  2  0
 22 23  1  0
 23 24  2  0
 15 25  1  0
 10  5  1  0
 25 11  1  0
 24 16  1  0
 24 19  1  0
  3 26  1  0
  4 27  1  0
  4 28  1  0
  6 29  1  0
  7 30  1  0
  8 31  1  0
  9 32  1  0
 12 33  1  0
 12 34  1  0
 13 35  1  0
 13 36  1  0
 14 37  1  0
 14 38  1  0
 15 39  1  0
 17 40  1  0
 20 41  1  0
 21 42  1  0
 22 43  1  0
 23 44  1  0
 25 45  1  0
 25 46  1  0
M  END
>  <Energy>  (587) 
1109.0482054176712

>  <compound_id>  (587) 
29324

>  <target_id>  (587) 
1

>  <reference_id>  (587) 
52

>  <inspiration_ids>  (587) 
[52, 60]

>  <energy_score>  (587) 
1102.2636177140362

>  <distance_score>  (587) 
12.38458422196132

>  <path>  (587) 
/opt/xchem-fragalysis-2/maxwin/BulkDock/SCRATCH/511017/C29324-P52/C29324-P52.minimised.mol

>  <scratch_subdir>  (587) 
/opt/xchem-fragalysis-2/maxwin/BulkDock/SCRATCH/511017/C29324-P52

>  <fragmenstein_runtime>  (587) 
45.98859882354736

>  <fragmenstein_outcome>  (587) 
too moved

>  <fragmenstein_mode>  (587) 
expansion

>  <fragmenstein_error>  (587) 


$$$$
C29324-P60
     RDKit          3D

 46 49  0  0  0  0  0  0  0  0999 V2000
   -5.3272  -11.7559   23.0292 O   0  0  0  0  0  0  0  0  0  0  0  0
   -5.9953  -10.9675   23.4996 C   0  0  0  0  0  0  0  0  0  0  0  0
   -5.8597   -9.5164   23.5446 N   0  0  0  0  0  0  0  0  0  0  0  0
   -4.7744   -8.6414   23.0835 C   0  0  0  0  0  0  0  0  0  0  0  0
   -3.9096   -8.9390   21.8555 C   0  0  0  0  0  0  0  0  0  0  0  0
   -2.5211   -8.9133   21.9787 C   0  0  0  0  0  0  0  0  0  0  0  0
   -1.7040   -9.2363   20.9023 C   0  0  0  0  0  0  0  0  0  0  0  0
   -2.2921   -9.4358   19.6630 C   0  0  0  0  0  0  0  0  0  0  0  0
   -3.6621   -9.3253   19.5804 C   0  0  0  0  0  0  0  0  0  0  0  0
   -4.4762   -9.0878   20.6405 N   0  0  0  0  0  0  0  0  0  0  0  0
   -7.4910  -11.0634   24.3090 N   0  0  0  0  0  0  0  0  0  0  0  0
   -8.0394  -12.2230   24.6136 C   0  0  0  0  0  0  0  0  0  0  0  0
   -6.8697  -13.5869   25.0544 C   0  0  0  0  0  0  0  0  0  0  0  0
   -7.7553  -14.5549   25.7946 C   0  0  0  0  0  0  0  0  0  0  0  0
   -8.9981  -13.7111   25.9638 C   0  0  0  0  0  0  0  0  0  0  0  0
   -9.2683  -13.2663   27.3203 N   0  0  0  0  0  0  0  0  0  0  0  0
   -8.3287  -12.7999   28.2031 C   0  0  0  0  0  0  0  0  0  0  0  0
   -8.7827  -12.7266   29.4315 N   0  0  0  0  0  0  0  0  0  0  0  0
  -10.0733  -13.1661   29.3652 C   0  0  0  0  0  0  0  0  0  0  0  0
  -10.9801  -13.3699   30.4145 C   0  0  0  0  0  0  0  0  0  0  0  0
  -12.2304  -13.9073   30.1184 C   0  0  0  0  0  0  0  0  0  0  0  0
  -12.5820  -14.2053   28.7993 C   0  0  0  0  0  0  0  0  0  0  0  0
  -11.6940  -13.9920   27.7337 C   0  0  0  0  0  0  0  0  0  0  0  0
  -10.4287  -13.4794   28.0487 C   0  0  0  0  0  0  0  0  0  0  0  0
   -8.8237  -12.4742   24.6692 C   0  0  0  0  0  0  0  0  0  0  0  0
   -6.5961   -9.1291   24.1188 H   0  0  0  0  0  0  0  0  0  0  0  0
   -4.1216   -8.5355   23.9583 H   0  0  0  0  0  0  0  0  0  0  0  0
   -5.2325   -7.6582   22.9227 H   0  0  0  0  0  0  0  0  0  0  0  0
   -2.0791   -8.6105   22.9133 H   0  0  0  0  0  0  0  0  0  0  0  0
   -0.6255   -9.2446   21.0273 H   0  0  0  0  0  0  0  0  0  0  0  0
   -1.7181   -9.6212   18.7664 H   0  0  0  0  0  0  0  0  0  0  0  0
   -4.1729   -9.4418   18.6289 H   0  0  0  0  0  0  0  0  0  0  0  0
   -7.5486  -12.5316   23.5014 H   0  0  0  0  0  0  0  0  0  0  0  0
   -7.5554  -11.8239   25.6866 H   0  0  0  0  0  0  0  0  0  0  0  0
   -6.4419  -14.0294   24.1460 H   0  0  0  0  0  0  0  0  0  0  0  0
   -6.0578  -13.1728   25.6653 H   0  0  0  0  0  0  0  0  0  0  0  0
   -7.9754  -15.4027   25.1433 H   0  0  0  0  0  0  0  0  0  0  0  0
   -7.3078  -14.9351   26.7164 H   0  0  0  0  0  0  0  0  0  0  0  0
   -9.8707  -14.3008   25.6534 H   0  0  0  0  0  0  0  0  0  0  0  0
   -7.3157  -12.5536   27.9116 H   0  0  0  0  0  0  0  0  0  0  0  0
  -10.6922  -13.1392   31.4340 H   0  0  0  0  0  0  0  0  0  0  0  0
  -12.9257  -14.0794   30.9326 H   0  0  0  0  0  0  0  0  0  0  0  0
  -13.5650  -14.6205   28.5857 H   0  0  0  0  0  0  0  0  0  0  0  0
  -11.9785  -14.2455   26.7189 H   0  0  0  0  0  0  0  0  0  0  0  0
   -9.3654  -12.9424   23.6603 H   0  0  0  0  0  0  0  0  0  0  0  0
   -9.7777  -11.7879   24.9611 H   0  0  0  0  0  0  0  0  0  0  0  0
  1  2  2  0
  2  3  1  0
  3  4  1  0
  4  5  1  0
  5  6  2  0
  6  7  1  0
  7  8  2  0
  8  9  1  0
  9 10  2  0
  2 11  1  0
 11 12  1  0
 12 13  1  0
 13 14  1  0
 14 15  1  0
 15 16  1  0
 16 17  1  0
 17 18  2  0
 18 19  1  0
 19 20  2  0
 20 21  1  0
 21 22  2  0
 22 23  1  0
 23 24  2  0
 15 25  1  0
 10  5  1  0
 25 11  1  0
 24 16  1  0
 24 19  1  0
  3 26  1  0
  4 27  1  0
  4 28  1  0
  6 29  1  0
  7 30  1  0
  8 31  1  0
  9 32  1  0
 12 33  1  0
 12 34  1  0
 13 35  1  0
 13 36  1  0
 14 37  1  0
 14 38  1  0
 15 39  1  0
 17 40  1  0
 20 41  1  0
 21 42  1  0
 22 43  1  0
 23 44  1  0
 25 45  1  0
 25 46  1  0
M  END
>  <Energy>  (588) 
758.25230355969313

>  <compound_id>  (588) 
29324

>  <target_id>  (588) 
1

>  <reference_id>  (588) 
60

>  <inspiration_ids>  (588) 
[52, 60]

>  <energy_score>  (588) 
751.4677158560481

>  <distance_score>  (588) 
13.496995991145758

>  <path>  (588) 
/opt/xchem-fragalysis-2/maxwin/BulkDock/SCRATCH/511017/C29324-P60/C29324-P60.minimised.mol

>  <scratch_subdir>  (588) 
/opt/xchem-fragalysis-2/maxwin/BulkDock/SCRATCH/511017/C29324-P60

>  <fragmenstein_runtime>  (588) 
34.27843379974365

>  <fragmenstein_outcome>  (588) 
too moved

>  <fragmenstein_mode>  (588) 
expansion

>  <fragmenstein_error>  (588) 


$$$$
C29327-P52
     RDKit          3D

 41 43  0  0  0  0  0  0  0  0999 V2000
    2.2329  -13.2071   22.5060 C   0  0  0  0  0  0  0  0  0  0  0  0
    0.3009  -12.9391   23.1219 C   0  0  0  0  0  0  0  0  0  0  0  0
    1.4642  -11.2625   22.5818 C   0  0  0  0  0  0  0  0  0  0  0  0
    2.8153  -11.0266   21.2471 C   0  0  0  0  0  0  0  0  0  0  0  0
    3.1525  -11.8082   19.9834 C   0  0  0  0  0  0  0  0  0  0  0  0
    4.2218  -11.7257   18.8054 C   0  0  0  0  0  0  0  0  0  0  0  0
    5.2010  -10.8460   18.8428 C   0  0  0  0  0  0  0  0  0  0  0  0
    4.7749  -10.0625   19.8618 C   0  0  0  0  0  0  0  0  0  0  0  0
    3.5733   -9.9769   20.9743 N   0  0  0  0  0  0  0  0  0  0  0  0
   -1.4363  -13.9839   23.7076 N   0  0  0  0  0  0  0  0  0  0  0  0
   -2.2828  -15.7056   24.6575 C   0  0  0  0  0  0  0  0  0  0  0  0
   -2.0771  -17.1529   26.0946 C   0  0  0  0  0  0  0  0  0  0  0  0
   -2.9887  -17.5212   27.1233 N   0  0  0  0  0  0  0  0  0  0  0  0
   -3.8888  -18.9049   26.9870 C   0  0  0  0  0  0  0  0  0  0  0  0
   -5.1077  -19.3358   27.4822 C   0  0  0  0  0  0  0  0  0  0  0  0
   -5.5565  -20.5721   27.0042 C   0  0  0  0  0  0  0  0  0  0  0  0
   -4.8371  -21.2687   26.0155 C   0  0  0  0  0  0  0  0  0  0  0  0
   -3.6410  -20.7710   25.4721 C   0  0  0  0  0  0  0  0  0  0  0  0
   -3.2732  -19.5205   25.9510 C   0  0  0  0  0  0  0  0  0  0  0  0
   -2.1191  -18.8182   26.3457 N   0  0  0  0  0  0  0  0  0  0  0  0
   -1.6469  -19.5044   27.7519 C   0  0  0  0  0  0  0  0  0  0  0  0
    2.8713  -14.0745   22.5802 H   0  0  0  0  0  0  0  0  0  0  0  0
    2.5701  -13.1050   21.5269 H   0  0  0  0  0  0  0  0  0  0  0  0
    2.9315  -12.5498   23.0905 H   0  0  0  0  0  0  0  0  0  0  0  0
    0.3470  -12.5249   24.1438 H   0  0  0  0  0  0  0  0  0  0  0  0
    0.7823  -10.6309   21.9932 H   0  0  0  0  0  0  0  0  0  0  0  0
    1.5730  -10.6837   23.4365 H   0  0  0  0  0  0  0  0  0  0  0  0
    2.5179  -12.6543   19.7872 H   0  0  0  0  0  0  0  0  0  0  0  0
    4.1440  -12.4130   17.9635 H   0  0  0  0  0  0  0  0  0  0  0  0
    6.0523  -10.7581   18.2055 H   0  0  0  0  0  0  0  0  0  0  0  0
    5.4853   -9.5050   20.4457 H   0  0  0  0  0  0  0  0  0  0  0  0
   -1.8867  -13.2655   24.2980 H   0  0  0  0  0  0  0  0  0  0  0  0
   -1.2826  -16.1845   25.0527 H   0  0  0  0  0  0  0  0  0  0  0  0
   -2.8236  -15.1197   25.3527 H   0  0  0  0  0  0  0  0  0  0  0  0
   -5.6799  -18.6795   28.1141 H   0  0  0  0  0  0  0  0  0  0  0  0
   -6.5054  -20.9723   27.3520 H   0  0  0  0  0  0  0  0  0  0  0  0
   -5.2272  -22.2105   25.6347 H   0  0  0  0  0  0  0  0  0  0  0  0
   -3.0435  -21.3289   24.7632 H   0  0  0  0  0  0  0  0  0  0  0  0
   -0.6352  -19.2030   27.9194 H   0  0  0  0  0  0  0  0  0  0  0  0
   -1.7245  -20.5905   27.6086 H   0  0  0  0  0  0  0  0  0  0  0  0
   -2.3157  -19.2491   28.5755 H   0  0  0  0  0  0  0  0  0  0  0  0
  1  2  1  0
  2  3  1  0
  3  4  1  0
  4  5  2  0
  5  6  1  0
  6  7  2  0
  7  8  1  0
  8  9  2  0
  2 10  1  0
 10 11  1  0
 11 12  1  0
 12 13  2  0
 13 14  1  0
 14 15  2  0
 15 16  1  0
 16 17  2  0
 17 18  1  0
 18 19  2  0
 19 20  1  0
 20 21  1  0
  9  4  1  0
 20 12  1  0
 19 14  1  0
  1 22  1  0
  1 23  1  0
  1 24  1  0
  2 25  1  0
  3 26  1  0
  3 27  1  0
  5 28  1  0
  6 29  1  0
  7 30  1  0
  8 31  1  0
 10 32  1  0
 11 33  1  0
 11 34  1  0
 15 35  1  0
 16 36  1  0
 17 37  1  0
 18 38  1  0
 21 39  1  0
 21 40  1  0
 21 41  1  0
M  END
>  <Energy>  (589) 
1168.1241565067551

>  <compound_id>  (589) 
29327

>  <target_id>  (589) 
1

>  <reference_id>  (589) 
52

>  <inspiration_ids>  (589) 
[52, 60]

>  <energy_score>  (589) 
1086.8509842010678

>  <distance_score>  (589) 
11.458987411001797

>  <path>  (589) 
/opt/xchem-fragalysis-2/maxwin/BulkDock/SCRATCH/511017/C29327-P52/C29327-P52.minimised.mol

>  <scratch_subdir>  (589) 
/opt/xchem-fragalysis-2/maxwin/BulkDock/SCRATCH/511017/C29327-P52

>  <fragmenstein_runtime>  (589) 
23.221696376800537

>  <fragmenstein_outcome>  (589) 
too moved

>  <fragmenstein_mode>  (589) 
expansion

>  <fragmenstein_error>  (589) 


$$$$
C29327-P60
     RDKit          3D

 41 43  0  0  0  0  0  0  0  0999 V2000
   -5.7591  -10.0328   20.8266 C   0  0  0  0  0  0  0  0  0  0  0  0
   -5.2384   -9.3766   22.1108 C   0  0  0  0  0  0  0  0  0  0  0  0
   -4.6798   -7.9164   21.7002 C   0  0  0  0  0  0  0  0  0  0  0  0
   -3.2199   -7.7168   21.1231 C   0  0  0  0  0  0  0  0  0  0  0  0
   -2.9671   -6.6833   20.1998 C   0  0  0  0  0  0  0  0  0  0  0  0
   -1.6603   -6.4161   19.7500 C   0  0  0  0  0  0  0  0  0  0  0  0
   -0.6073   -7.1741   20.2327 C   0  0  0  0  0  0  0  0  0  0  0  0
   -0.9164   -8.1643   21.1492 C   0  0  0  0  0  0  0  0  0  0  0  0
   -2.1775   -8.4387   21.6096 N   0  0  0  0  0  0  0  0  0  0  0  0
   -6.2030   -9.4896   23.2970 N   0  0  0  0  0  0  0  0  0  0  0  0
   -7.4590  -10.3175   23.2739 C   0  0  0  0  0  0  0  0  0  0  0  0
   -7.6169  -11.7746   23.8744 C   0  0  0  0  0  0  0  0  0  0  0  0
   -7.9378  -12.8276   23.1217 N   0  0  0  0  0  0  0  0  0  0  0  0
   -8.2195  -13.8831   23.9578 C   0  0  0  0  0  0  0  0  0  0  0  0
   -8.5785  -15.1995   23.6414 C   0  0  0  0  0  0  0  0  0  0  0  0
   -8.7645  -16.1206   24.6705 C   0  0  0  0  0  0  0  0  0  0  0  0
   -8.5928  -15.7498   25.9993 C   0  0  0  0  0  0  0  0  0  0  0  0
   -8.2898  -14.4240   26.3407 C   0  0  0  0  0  0  0  0  0  0  0  0
   -8.1078  -13.5110   25.2833 C   0  0  0  0  0  0  0  0  0  0  0  0
   -7.7982  -12.1572   25.2128 N   0  0  0  0  0  0  0  0  0  0  0  0
   -7.8008  -11.3264   26.3875 C   0  0  0  0  0  0  0  0  0  0  0  0
   -4.9704  -10.0715   20.0672 H   0  0  0  0  0  0  0  0  0  0  0  0
   -6.5990   -9.4670   20.4085 H   0  0  0  0  0  0  0  0  0  0  0  0
   -6.1006  -11.0575   20.9881 H   0  0  0  0  0  0  0  0  0  0  0  0
   -4.3341   -9.8709   22.4570 H   0  0  0  0  0  0  0  0  0  0  0  0
   -4.7651   -7.2480   22.5601 H   0  0  0  0  0  0  0  0  0  0  0  0
   -5.3773   -7.4997   20.9603 H   0  0  0  0  0  0  0  0  0  0  0  0
   -3.7893   -6.0793   19.8270 H   0  0  0  0  0  0  0  0  0  0  0  0
   -1.4838   -5.6257   19.0271 H   0  0  0  0  0  0  0  0  0  0  0  0
    0.4097   -7.0187   19.8994 H   0  0  0  0  0  0  0  0  0  0  0  0
   -0.1387   -8.8077   21.5526 H   0  0  0  0  0  0  0  0  0  0  0  0
   -6.4418   -8.5430   23.5785 H   0  0  0  0  0  0  0  0  0  0  0  0
   -7.8791  -10.3327   22.2621 H   0  0  0  0  0  0  0  0  0  0  0  0
   -8.1905   -9.7297   23.8474 H   0  0  0  0  0  0  0  0  0  0  0  0
   -8.6846  -15.4871   22.6015 H   0  0  0  0  0  0  0  0  0  0  0  0
   -9.0286  -17.1284   24.3904 H   0  0  0  0  0  0  0  0  0  0  0  0
   -8.6885  -16.5017   26.7730 H   0  0  0  0  0  0  0  0  0  0  0  0
   -8.1583  -14.1223   27.3740 H   0  0  0  0  0  0  0  0  0  0  0  0
   -8.8186  -11.2915   26.7853 H   0  0  0  0  0  0  0  0  0  0  0  0
   -7.4790  -10.3162   26.1268 H   0  0  0  0  0  0  0  0  0  0  0  0
   -7.1183  -11.7512   27.1270 H   0  0  0  0  0  0  0  0  0  0  0  0
  1  2  1  0
  2  3  1  0
  3  4  1  0
  4  5  2  0
  5  6  1  0
  6  7  2  0
  7  8  1  0
  8  9  2  0
  2 10  1  0
 10 11  1  0
 11 12  1  0
 12 13  2  0
 13 14  1  0
 14 15  2  0
 15 16  1  0
 16 17  2  0
 17 18  1  0
 18 19  2  0
 19 20  1  0
 20 21  1  0
  9  4  1  0
 20 12  1  0
 19 14  1  0
  1 22  1  0
  1 23  1  0
  1 24  1  0
  2 25  1  0
  3 26  1  0
  3 27  1  0
  5 28  1  0
  6 29  1  0
  7 30  1  0
  8 31  1  0
 10 32  1  0
 11 33  1  0
 11 34  1  0
 15 35  1  0
 16 36  1  0
 17 37  1  0
 18 38  1  0
 21 39  1  0
 21 40  1  0
 21 41  1  0
M  END
>  <Energy>  (590) 
86.290170439768644

>  <compound_id>  (590) 
29327

>  <target_id>  (590) 
1

>  <reference_id>  (590) 
60

>  <inspiration_ids>  (590) 
[52, 60]

>  <energy_score>  (590) 
5.016998134072253

>  <distance_score>  (590) 
13.885716564621196

>  <path>  (590) 
/opt/xchem-fragalysis-2/maxwin/BulkDock/SCRATCH/511017/C29327-P60/C29327-P60.minimised.mol

>  <scratch_subdir>  (590) 
/opt/xchem-fragalysis-2/maxwin/BulkDock/SCRATCH/511017/C29327-P60

>  <fragmenstein_runtime>  (590) 
35.79679727554321

>  <fragmenstein_outcome>  (590) 
too moved

>  <fragmenstein_mode>  (590) 
expansion

>  <fragmenstein_error>  (590) 


$$$$
C29328-P52
     RDKit          3D

 39 42  0  0  0  0  0  0  0  0999 V2000
   -2.6438   -8.6018   19.0570 C   0  0  0  0  0  0  0  0  0  0  0  0
   -3.0947   -9.8868   18.8277 C   0  0  0  0  0  0  0  0  0  0  0  0
   -2.5701  -10.9304   19.5754 C   0  0  0  0  0  0  0  0  0  0  0  0
   -1.6791  -10.6669   20.6389 C   0  0  0  0  0  0  0  0  0  0  0  0
   -0.7984  -12.1001   21.8983 C   0  0  0  0  0  0  0  0  0  0  0  0
   -1.5326  -13.7923   22.1004 C   0  0  0  0  0  0  0  0  0  0  0  0
   -2.9038  -14.3582   23.4393 C   0  0  0  0  0  0  0  0  0  0  0  0
   -2.7514  -14.2273   24.8258 N   0  0  0  0  0  0  0  0  0  0  0  0
   -2.5564  -15.2215   26.2651 C   0  0  0  0  0  0  0  0  0  0  0  0
   -2.6252  -14.7672   27.5294 N   0  0  0  0  0  0  0  0  0  0  0  0
   -2.7648  -15.8649   28.3624 C   0  0  0  0  0  0  0  0  0  0  0  0
   -3.2095  -15.9740   29.6962 C   0  0  0  0  0  0  0  0  0  0  0  0
   -3.3238  -17.2464   30.2839 C   0  0  0  0  0  0  0  0  0  0  0  0
   -2.9824  -18.3908   29.5625 C   0  0  0  0  0  0  0  0  0  0  0  0
   -2.5355  -18.3024   28.2364 C   0  0  0  0  0  0  0  0  0  0  0  0
   -2.4264  -17.0155   27.6806 C   0  0  0  0  0  0  0  0  0  0  0  0
   -2.1604  -16.5612   26.3827 N   0  0  0  0  0  0  0  0  0  0  0  0
   -2.3257  -12.9279   24.8566 C   0  0  0  0  0  0  0  0  0  0  0  0
   -1.0990  -12.8592   23.6623 C   0  0  0  0  0  0  0  0  0  0  0  0
   -1.1346   -9.4089   20.7177 N   0  0  0  0  0  0  0  0  0  0  0  0
   -1.6278   -8.4109   19.9661 C   0  0  0  0  0  0  0  0  0  0  0  0
   -3.0465   -7.8124   18.4546 H   0  0  0  0  0  0  0  0  0  0  0  0
   -3.8245  -10.0781   18.0485 H   0  0  0  0  0  0  0  0  0  0  0  0
   -2.8642  -11.9212   19.3405 H   0  0  0  0  0  0  0  0  0  0  0  0
   -0.5036  -12.8575   21.2034 H   0  0  0  0  0  0  0  0  0  0  0  0
   -2.1013  -13.8567   21.0218 H   0  0  0  0  0  0  0  0  0  0  0  0
   -0.8520  -14.5008   21.4579 H   0  0  0  0  0  0  0  0  0  0  0  0
   -3.9024  -14.1824   23.0415 H   0  0  0  0  0  0  0  0  0  0  0  0
   -2.9398  -15.3025   23.8426 H   0  0  0  0  0  0  0  0  0  0  0  0
   -3.4859  -15.0783   30.2419 H   0  0  0  0  0  0  0  0  0  0  0  0
   -3.6788  -17.3340   31.3075 H   0  0  0  0  0  0  0  0  0  0  0  0
   -3.0668  -19.3665   30.0324 H   0  0  0  0  0  0  0  0  0  0  0  0
   -2.3252  -19.1939   27.6561 H   0  0  0  0  0  0  0  0  0  0  0  0
   -2.2776  -17.1896   25.6151 H   0  0  0  0  0  0  0  0  0  0  0  0
   -2.9477  -12.0248   24.7399 H   0  0  0  0  0  0  0  0  0  0  0  0
   -2.1427  -13.0016   25.9229 H   0  0  0  0  0  0  0  0  0  0  0  0
   -1.1038  -12.0865   24.4070 H   0  0  0  0  0  0  0  0  0  0  0  0
   -0.0405  -13.0682   23.7217 H   0  0  0  0  0  0  0  0  0  0  0  0
   -1.1537   -7.4573   20.1407 H   0  0  0  0  0  0  0  0  0  0  0  0
  1  2  2  0
  2  3  1  0
  3  4  2  0
  4  5  1  0
  5  6  1  0
  6  7  1  0
  7  8  1  0
  8  9  1  0
  9 10  2  0
 10 11  1  0
 11 12  2  0
 12 13  1  0
 13 14  2  0
 14 15  1  0
 15 16  2  0
 16 17  1  0
  8 18  1  0
 18 19  1  0
  4 20  1  0
 20 21  2  0
 21  1  1  0
 19  5  1  0
 17  9  1  0
 16 11  1  0
  1 22  1  0
  2 23  1  0
  3 24  1  0
  5 25  1  0
  6 26  1  0
  6 27  1  0
  7 28  1  0
  7 29  1  0
 12 30  1  0
 13 31  1  0
 14 32  1  0
 15 33  1  0
 17 34  1  0
 18 35  1  0
 18 36  1  0
 19 37  1  0
 19 38  1  0
 21 39  1  0
M  END
>  <Energy>  (591) 
599.42135980837213

>  <compound_id>  (591) 
29328

>  <target_id>  (591) 
1

>  <reference_id>  (591) 
52

>  <inspiration_ids>  (591) 
[52, 60]

>  <energy_score>  (591) 
559.3404224461074

>  <distance_score>  (591) 
13.893676159710518

>  <path>  (591) 
/opt/xchem-fragalysis-2/maxwin/BulkDock/SCRATCH/511017/C29328-P52/C29328-P52.minimised.mol

>  <scratch_subdir>  (591) 
/opt/xchem-fragalysis-2/maxwin/BulkDock/SCRATCH/511017/C29328-P52

>  <fragmenstein_runtime>  (591) 
24.48806595802307

>  <fragmenstein_outcome>  (591) 
too moved

>  <fragmenstein_mode>  (591) 
expansion

>  <fragmenstein_error>  (591) 


$$$$
C29328-P60
     RDKit          3D

 39 42  0  0  0  0  0  0  0  0999 V2000
   -4.7181   -2.7566   23.1998 C   0  0  0  0  0  0  0  0  0  0  0  0
   -5.3167   -3.8719   22.6408 C   0  0  0  0  0  0  0  0  0  0  0  0
   -6.3844   -4.5008   23.3185 C   0  0  0  0  0  0  0  0  0  0  0  0
   -6.8413   -4.0410   24.5798 C   0  0  0  0  0  0  0  0  0  0  0  0
   -7.9444   -4.8410   25.4611 C   0  0  0  0  0  0  0  0  0  0  0  0
   -7.6381   -5.0552   26.9893 C   0  0  0  0  0  0  0  0  0  0  0  0
   -8.3528   -6.2528   27.7611 C   0  0  0  0  0  0  0  0  0  0  0  0
   -8.4209   -7.5214   26.9839 N   0  0  0  0  0  0  0  0  0  0  0  0
   -8.7067   -8.7434   27.6378 C   0  0  0  0  0  0  0  0  0  0  0  0
   -8.9561   -9.0133   28.9136 N   0  0  0  0  0  0  0  0  0  0  0  0
   -9.0586  -10.4053   29.0437 C   0  0  0  0  0  0  0  0  0  0  0  0
   -9.2956  -11.2248   30.1725 C   0  0  0  0  0  0  0  0  0  0  0  0
   -9.3206  -12.6263   30.0315 C   0  0  0  0  0  0  0  0  0  0  0  0
   -9.1140  -13.2131   28.7829 C   0  0  0  0  0  0  0  0  0  0  0  0
   -8.8862  -12.4206   27.6460 C   0  0  0  0  0  0  0  0  0  0  0  0
   -8.8701  -11.0218   27.8161 C   0  0  0  0  0  0  0  0  0  0  0  0
   -8.6647   -9.9603   26.9530 N   0  0  0  0  0  0  0  0  0  0  0  0
   -9.0626   -7.2399   25.6854 C   0  0  0  0  0  0  0  0  0  0  0  0
   -8.2222   -6.2304   24.8890 C   0  0  0  0  0  0  0  0  0  0  0  0
   -6.2570   -2.9212   25.1031 N   0  0  0  0  0  0  0  0  0  0  0  0
   -5.2322   -2.3174   24.4080 C   0  0  0  0  0  0  0  0  0  0  0  0
   -3.9087   -2.2325   22.7083 H   0  0  0  0  0  0  0  0  0  0  0  0
   -4.9780   -4.2682   21.6872 H   0  0  0  0  0  0  0  0  0  0  0  0
   -6.8182   -5.3843   22.8596 H   0  0  0  0  0  0  0  0  0  0  0  0
   -8.8635   -4.2462   25.3825 H   0  0  0  0  0  0  0  0  0  0  0  0
   -6.5649   -5.1773   27.1316 H   0  0  0  0  0  0  0  0  0  0  0  0
   -7.8755   -4.1243   27.5207 H   0  0  0  0  0  0  0  0  0  0  0  0
   -7.8087   -6.4196   28.6986 H   0  0  0  0  0  0  0  0  0  0  0  0
   -9.3708   -5.9384   28.0240 H   0  0  0  0  0  0  0  0  0  0  0  0
   -9.4445  -10.7614   31.1419 H   0  0  0  0  0  0  0  0  0  0  0  0
   -9.4957  -13.2466   30.9064 H   0  0  0  0  0  0  0  0  0  0  0  0
   -9.1233  -14.2945   28.6835 H   0  0  0  0  0  0  0  0  0  0  0  0
   -8.7166  -12.8725   26.6749 H   0  0  0  0  0  0  0  0  0  0  0  0
   -8.4326  -10.0393   25.9783 H   0  0  0  0  0  0  0  0  0  0  0  0
  -10.0775   -6.8526   25.8387 H   0  0  0  0  0  0  0  0  0  0  0  0
   -9.1519   -8.1529   25.0866 H   0  0  0  0  0  0  0  0  0  0  0  0
   -7.2292   -6.6599   24.8384 H   0  0  0  0  0  0  0  0  0  0  0  0
   -8.6494   -6.1424   23.8840 H   0  0  0  0  0  0  0  0  0  0  0  0
   -4.8323   -1.4290   24.8901 H   0  0  0  0  0  0  0  0  0  0  0  0
  1  2  2  0
  2  3  1  0
  3  4  2  0
  4  5  1  0
  5  6  1  0
  6  7  1  0
  7  8  1  0
  8  9  1  0
  9 10  2  0
 10 11  1  0
 11 12  2  0
 12 13  1  0
 13 14  2  0
 14 15  1  0
 15 16  2  0
 16 17  1  0
  8 18  1  0
 18 19  1  0
  4 20  1  0
 20 21  2  0
 21  1  1  0
 19  5  1  0
 17  9  1  0
 16 11  1  0
  1 22  1  0
  2 23  1  0
  3 24  1  0
  5 25  1  0
  6 26  1  0
  6 27  1  0
  7 28  1  0
  7 29  1  0
 12 30  1  0
 13 31  1  0
 14 32  1  0
 15 33  1  0
 17 34  1  0
 18 35  1  0
 18 36  1  0
 19 37  1  0
 19 38  1  0
 21 39  1  0
M  END
>  <Energy>  (592) 
21.435743649217752

>  <compound_id>  (592) 
29328

>  <target_id>  (592) 
1

>  <reference_id>  (592) 
60

>  <inspiration_ids>  (592) 
[52, 60]

>  <energy_score>  (592) 
-18.64519371304516

>  <distance_score>  (592) 
16.179603073428797

>  <path>  (592) 
/opt/xchem-fragalysis-2/maxwin/BulkDock/SCRATCH/511017/C29328-P60/C29328-P60.minimised.mol

>  <scratch_subdir>  (592) 
/opt/xchem-fragalysis-2/maxwin/BulkDock/SCRATCH/511017/C29328-P60

>  <fragmenstein_runtime>  (592) 
25.455527782440186

>  <fragmenstein_outcome>  (592) 
too moved

>  <fragmenstein_mode>  (592) 
expansion

>  <fragmenstein_error>  (592) 


$$$$
C29329-P52
     RDKit          3D

 44 47  0  0  0  0  0  0  0  0999 V2000
    3.9108  -12.9494   24.9990 C   0  0  0  0  0  0  0  0  0  0  0  0
    3.2600  -12.1170   24.1008 N   0  0  0  0  0  0  0  0  0  0  0  0
    4.8923  -11.1773   24.5841 C   0  0  0  0  0  0  0  0  0  0  0  0
    5.7745  -10.3455   23.6668 C   0  0  0  0  0  0  0  0  0  0  0  0
    6.8523   -9.4540   23.9580 C   0  0  0  0  0  0  0  0  0  0  0  0
    6.9942   -9.0333   25.2347 C   0  0  0  0  0  0  0  0  0  0  0  0
    6.0841   -9.5843   26.0947 C   0  0  0  0  0  0  0  0  0  0  0  0
    5.1691  -10.6321   25.8337 N   0  0  0  0  0  0  0  0  0  0  0  0
    1.3079  -11.8739   24.6869 C   0  0  0  0  0  0  0  0  0  0  0  0
   -0.1751  -12.9005   23.7200 C   0  0  0  0  0  0  0  0  0  0  0  0
   -2.0017  -13.2439   24.5471 C   0  0  0  0  0  0  0  0  0  0  0  0
   -2.2453  -13.7938   26.2714 N   0  0  0  0  0  0  0  0  0  0  0  0
   -3.0077  -15.0044   27.0776 C   0  0  0  0  0  0  0  0  0  0  0  0
   -3.8584  -14.8531   28.1809 N   0  0  0  0  0  0  0  0  0  0  0  0
   -4.7028  -15.8621   28.6732 C   0  0  0  0  0  0  0  0  0  0  0  0
   -5.8343  -15.7519   29.4565 C   0  0  0  0  0  0  0  0  0  0  0  0
   -6.8531  -16.4122   28.7839 C   0  0  0  0  0  0  0  0  0  0  0  0
   -6.6605  -17.5724   27.9856 C   0  0  0  0  0  0  0  0  0  0  0  0
   -5.3882  -18.0029   27.6321 C   0  0  0  0  0  0  0  0  0  0  0  0
   -4.5494  -16.8888   27.7394 C   0  0  0  0  0  0  0  0  0  0  0  0
   -3.1015  -16.3283   26.9397 N   0  0  0  0  0  0  0  0  0  0  0  0
   -1.1669  -13.2641   27.0124 C   0  0  0  0  0  0  0  0  0  0  0  0
    0.6982  -12.8164   26.1326 C   0  0  0  0  0  0  0  0  0  0  0  0
    4.6996  -13.2784   24.3268 H   0  0  0  0  0  0  0  0  0  0  0  0
    3.7312  -13.9205   25.4282 H   0  0  0  0  0  0  0  0  0  0  0  0
    3.8399  -12.4818   25.9855 H   0  0  0  0  0  0  0  0  0  0  0  0
    5.5618  -10.1072   22.6459 H   0  0  0  0  0  0  0  0  0  0  0  0
    7.4205   -8.9981   23.1521 H   0  0  0  0  0  0  0  0  0  0  0  0
    7.7057   -8.2806   25.5407 H   0  0  0  0  0  0  0  0  0  0  0  0
    6.0379   -9.2295   27.1261 H   0  0  0  0  0  0  0  0  0  0  0  0
    0.9704  -10.8255   24.6888 H   0  0  0  0  0  0  0  0  0  0  0  0
    0.5160  -13.1245   22.9175 H   0  0  0  0  0  0  0  0  0  0  0  0
   -0.7088  -12.7649   22.7562 H   0  0  0  0  0  0  0  0  0  0  0  0
   -2.5107  -14.0518   24.0012 H   0  0  0  0  0  0  0  0  0  0  0  0
   -2.4891  -12.2709   24.6146 H   0  0  0  0  0  0  0  0  0  0  0  0
   -6.0509  -14.8563   30.0213 H   0  0  0  0  0  0  0  0  0  0  0  0
   -7.8076  -15.8943   28.7852 H   0  0  0  0  0  0  0  0  0  0  0  0
   -7.5193  -18.0763   27.5460 H   0  0  0  0  0  0  0  0  0  0  0  0
   -5.2089  -18.8312   26.9611 H   0  0  0  0  0  0  0  0  0  0  0  0
   -2.7657  -16.9277   26.2057 H   0  0  0  0  0  0  0  0  0  0  0  0
   -0.8970  -14.0491   27.6968 H   0  0  0  0  0  0  0  0  0  0  0  0
   -1.6822  -12.8147   27.8538 H   0  0  0  0  0  0  0  0  0  0  0  0
    1.5533  -13.0679   26.7885 H   0  0  0  0  0  0  0  0  0  0  0  0
    0.2265  -11.8849   25.8220 H   0  0  0  0  0  0  0  0  0  0  0  0
  1  2  1  0
  2  3  1  0
  3  4  2  0
  4  5  1  0
  5  6  2  0
  6  7  1  0
  7  8  2  0
  2  9  1  0
  9 10  1  0
 10 11  1  0
 11 12  1  0
 12 13  1  0
 13 14  2  0
 14 15  1  0
 15 16  2  0
 16 17  1  0
 17 18  2  0
 18 19  1  0
 19 20  2  0
 20 21  1  0
 12 22  1  0
 22 23  1  0
  8  3  1  0
 23  9  1  0
 21 13  1  0
 20 15  1  0
  1 24  1  0
  1 25  1  0
  1 26  1  0
  4 27  1  0
  5 28  1  0
  6 29  1  0
  7 30  1  0
  9 31  1  0
 10 32  1  0
 10 33  1  0
 11 34  1  0
 11 35  1  0
 16 36  1  0
 17 37  1  0
 18 38  1  0
 19 39  1  0
 21 40  1  0
 22 41  1  0
 22 42  1  0
 23 43  1  0
 23 44  1  0
M  END
>  <Energy>  (593) 
838.09800655324682

>  <compound_id>  (593) 
29329

>  <target_id>  (593) 
1

>  <reference_id>  (593) 
52

>  <inspiration_ids>  (593) 
[52, 60]

>  <energy_score>  (593) 
842.1789794612077

>  <distance_score>  (593) 
12.527788389691906

>  <path>  (593) 
/opt/xchem-fragalysis-2/maxwin/BulkDock/SCRATCH/511017/C29329-P52/C29329-P52.minimised.mol

>  <scratch_subdir>  (593) 
/opt/xchem-fragalysis-2/maxwin/BulkDock/SCRATCH/511017/C29329-P52

>  <fragmenstein_runtime>  (593) 
18.562880277633667

>  <fragmenstein_outcome>  (593) 
too moved

>  <fragmenstein_mode>  (593) 
expansion

>  <fragmenstein_error>  (593) 


$$$$
C29329-P60
     RDKit          3D

 44 47  0  0  0  0  0  0  0  0999 V2000
    1.8692  -12.9995   24.4858 C   0  0  0  0  0  0  0  0  0  0  0  0
    0.8989  -14.0822   23.6894 N   0  0  0  0  0  0  0  0  0  0  0  0
    2.6203  -14.2790   22.7264 C   0  0  0  0  0  0  0  0  0  0  0  0
    3.3335  -12.8677   22.0660 C   0  0  0  0  0  0  0  0  0  0  0  0
    4.2124  -12.7898   20.5128 C   0  0  0  0  0  0  0  0  0  0  0  0
    3.9463  -13.4078   19.0997 C   0  0  0  0  0  0  0  0  0  0  0  0
    2.7487  -14.3998   19.3059 C   0  0  0  0  0  0  0  0  0  0  0  0
    2.3374  -14.7738   20.9794 N   0  0  0  0  0  0  0  0  0  0  0  0
   -0.9334  -14.6276   24.5689 C   0  0  0  0  0  0  0  0  0  0  0  0
   -2.2899  -16.0128   24.8061 C   0  0  0  0  0  0  0  0  0  0  0  0
   -2.4180  -17.5502   26.1120 C   0  0  0  0  0  0  0  0  0  0  0  0
   -3.6067  -17.4220   27.5650 N   0  0  0  0  0  0  0  0  0  0  0  0
   -5.2814  -17.9109   28.1447 C   0  0  0  0  0  0  0  0  0  0  0  0
   -5.7985  -17.5861   29.3732 N   0  0  0  0  0  0  0  0  0  0  0  0
   -7.1740  -18.2333   29.9277 C   0  0  0  0  0  0  0  0  0  0  0  0
   -7.4999  -18.1590   31.7663 C   0  0  0  0  0  0  0  0  0  0  0  0
   -8.9081  -19.4108   32.5307 C   0  0  0  0  0  0  0  0  0  0  0  0
   -9.9946  -20.5046   31.4015 C   0  0  0  0  0  0  0  0  0  0  0  0
   -9.8122  -20.4559   29.4851 C   0  0  0  0  0  0  0  0  0  0  0  0
   -8.2598  -19.2132   28.7668 C   0  0  0  0  0  0  0  0  0  0  0  0
   -6.7666  -18.8919   27.7588 N   0  0  0  0  0  0  0  0  0  0  0  0
   -2.4300  -16.0420   27.8812 C   0  0  0  0  0  0  0  0  0  0  0  0
   -1.8049  -14.7412   26.4824 C   0  0  0  0  0  0  0  0  0  0  0  0
    1.5235  -13.0934   25.5290 H   0  0  0  0  0  0  0  0  0  0  0  0
    1.8338  -12.0323   23.9988 H   0  0  0  0  0  0  0  0  0  0  0  0
    2.9321  -13.2690   24.4494 H   0  0  0  0  0  0  0  0  0  0  0  0
    3.4537  -12.0211   22.7159 H   0  0  0  0  0  0  0  0  0  0  0  0
    5.0620  -12.0998   20.4847 H   0  0  0  0  0  0  0  0  0  0  0  0
    4.4565  -13.1815   18.1845 H   0  0  0  0  0  0  0  0  0  0  0  0
    2.2736  -14.9108   18.4863 H   0  0  0  0  0  0  0  0  0  0  0  0
   -1.2367  -13.6501   24.8377 H   0  0  0  0  0  0  0  0  0  0  0  0
   -3.0830  -15.5546   25.2590 H   0  0  0  0  0  0  0  0  0  0  0  0
   -2.9673  -15.8105   23.9763 H   0  0  0  0  0  0  0  0  0  0  0  0
   -1.4601  -17.7838   26.6004 H   0  0  0  0  0  0  0  0  0  0  0  0
   -2.6455  -18.5208   25.6751 H   0  0  0  0  0  0  0  0  0  0  0  0
   -6.7103  -17.7536   32.4012 H   0  0  0  0  0  0  0  0  0  0  0  0
   -8.6580  -19.6123   33.5454 H   0  0  0  0  0  0  0  0  0  0  0  0
  -10.6488  -21.2746   31.8103 H   0  0  0  0  0  0  0  0  0  0  0  0
  -10.2486  -21.2681   28.8589 H   0  0  0  0  0  0  0  0  0  0  0  0
   -6.6601  -19.4704   26.9506 H   0  0  0  0  0  0  0  0  0  0  0  0
   -2.7630  -15.5165   28.7748 H   0  0  0  0  0  0  0  0  0  0  0  0
   -1.5250  -16.5674   28.2141 H   0  0  0  0  0  0  0  0  0  0  0  0
   -1.0619  -14.4209   27.1930 H   0  0  0  0  0  0  0  0  0  0  0  0
   -2.6128  -14.0389   26.3835 H   0  0  0  0  0  0  0  0  0  0  0  0
  1  2  1  0
  2  3  1  0
  3  4  2  0
  4  5  1  0
  5  6  2  0
  6  7  1  0
  7  8  2  0
  2  9  1  0
  9 10  1  0
 10 11  1  0
 11 12  1  0
 12 13  1  0
 13 14  2  0
 14 15  1  0
 15 16  2  0
 16 17  1  0
 17 18  2  0
 18 19  1  0
 19 20  2  0
 20 21  1  0
 12 22  1  0
 22 23  1  0
  8  3  1  0
 23  9  1  0
 21 13  1  0
 20 15  1  0
  1 24  1  0
  1 25  1  0
  1 26  1  0
  4 27  1  0
  5 28  1  0
  6 29  1  0
  7 30  1  0
  9 31  1  0
 10 32  1  0
 10 33  1  0
 11 34  1  0
 11 35  1  0
 16 36  1  0
 17 37  1  0
 18 38  1  0
 19 39  1  0
 21 40  1  0
 22 41  1  0
 22 42  1  0
 23 43  1  0
 23 44  1  0
M  END
>  <Energy>  (594) 
2006.3790508286472

>  <compound_id>  (594) 
29329

>  <target_id>  (594) 
1

>  <reference_id>  (594) 
60

>  <inspiration_ids>  (594) 
[52, 60]

>  <energy_score>  (594) 
2010.4600237366246

>  <distance_score>  (594) 
12.287306715437763

>  <path>  (594) 
/opt/xchem-fragalysis-2/maxwin/BulkDock/SCRATCH/511017/C29329-P60/C29329-P60.minimised.mol

>  <scratch_subdir>  (594) 
/opt/xchem-fragalysis-2/maxwin/BulkDock/SCRATCH/511017/C29329-P60

>  <fragmenstein_runtime>  (594) 
39.8638699054718

>  <fragmenstein_outcome>  (594) 
too moved

>  <fragmenstein_mode>  (594) 
expansion

>  <fragmenstein_error>  (594) 


$$$$
C29331-P52
     RDKit          3D

 46 49  0  0  0  0  0  0  0  0999 V2000
    2.2653   -6.7058   30.4159 O   0  0  0  0  0  0  0  0  0  0  0  0
    2.0341   -6.9709   29.2663 C   0  0  0  0  0  0  0  0  0  0  0  0
    2.8397   -6.7443   28.0449 N   0  0  0  0  0  0  0  0  0  0  0  0
    4.2121   -6.2146   27.8746 C   0  0  0  0  0  0  0  0  0  0  0  0
    4.7130   -5.6429   26.5159 C   0  0  0  0  0  0  0  0  0  0  0  0
    4.7376   -4.2652   26.2771 C   0  0  0  0  0  0  0  0  0  0  0  0
    5.3140   -3.7534   25.0987 C   0  0  0  0  0  0  0  0  0  0  0  0
    5.8673   -4.6150   24.1649 C   0  0  0  0  0  0  0  0  0  0  0  0
    5.8057   -5.9629   24.4527 C   0  0  0  0  0  0  0  0  0  0  0  0
    5.2379   -6.4907   25.5828 N   0  0  0  0  0  0  0  0  0  0  0  0
    0.6193   -7.6242   28.9509 C   0  0  0  0  0  0  0  0  0  0  0  0
   -0.1457   -6.5875   28.1326 C   0  0  0  0  0  0  0  0  0  0  0  0
   -1.5498   -7.0676   27.8331 C   0  0  0  0  0  0  0  0  0  0  0  0
   -2.3472   -7.3695   29.1082 C   0  0  0  0  0  0  0  0  0  0  0  0
   -1.7245   -8.4199   29.9201 N   0  0  0  0  0  0  0  0  0  0  0  0
   -2.4877   -9.4167   30.5931 C   0  0  0  0  0  0  0  0  0  0  0  0
   -2.0888  -10.3240   31.4812 N   0  0  0  0  0  0  0  0  0  0  0  0
   -3.0709  -11.3194   31.5727 C   0  0  0  0  0  0  0  0  0  0  0  0
   -3.1185  -12.5205   32.3201 C   0  0  0  0  0  0  0  0  0  0  0  0
   -4.2084  -13.4006   32.1739 C   0  0  0  0  0  0  0  0  0  0  0  0
   -5.2455  -13.0930   31.2946 C   0  0  0  0  0  0  0  0  0  0  0  0
   -5.2264  -11.8986   30.5518 C   0  0  0  0  0  0  0  0  0  0  0  0
   -4.1255  -11.0327   30.7231 C   0  0  0  0  0  0  0  0  0  0  0  0
   -3.7692   -9.8104   30.1679 N   0  0  0  0  0  0  0  0  0  0  0  0
   -0.2567   -8.1082   30.2304 C   0  0  0  0  0  0  0  0  0  0  0  0
    2.3713   -7.1715   27.2533 H   0  0  0  0  0  0  0  0  0  0  0  0
    4.8776   -7.0469   28.1343 H   0  0  0  0  0  0  0  0  0  0  0  0
    4.3600   -5.4610   28.6572 H   0  0  0  0  0  0  0  0  0  0  0  0
    4.3338   -3.5781   27.0162 H   0  0  0  0  0  0  0  0  0  0  0  0
    5.3387   -2.6795   24.9301 H   0  0  0  0  0  0  0  0  0  0  0  0
    6.3234   -4.2476   23.2533 H   0  0  0  0  0  0  0  0  0  0  0  0
    6.2071   -6.6979   23.7605 H   0  0  0  0  0  0  0  0  0  0  0  0
    0.8089   -8.5052   28.3282 H   0  0  0  0  0  0  0  0  0  0  0  0
    0.3557   -6.3826   27.1850 H   0  0  0  0  0  0  0  0  0  0  0  0
   -0.1887   -5.6351   28.6764 H   0  0  0  0  0  0  0  0  0  0  0  0
   -2.0773   -6.2939   27.2623 H   0  0  0  0  0  0  0  0  0  0  0  0
   -1.5119   -7.9555   27.1928 H   0  0  0  0  0  0  0  0  0  0  0  0
   -2.4374   -6.4597   29.7148 H   0  0  0  0  0  0  0  0  0  0  0  0
   -3.3630   -7.6381   28.8032 H   0  0  0  0  0  0  0  0  0  0  0  0
   -2.2989  -12.7592   32.9898 H   0  0  0  0  0  0  0  0  0  0  0  0
   -4.2332  -14.3234   32.7475 H   0  0  0  0  0  0  0  0  0  0  0  0
   -6.0822  -13.7789   31.1855 H   0  0  0  0  0  0  0  0  0  0  0  0
   -6.0341  -11.6536   29.8700 H   0  0  0  0  0  0  0  0  0  0  0  0
   -4.2809   -9.3546   29.4344 H   0  0  0  0  0  0  0  0  0  0  0  0
    0.2247   -8.9854   30.6747 H   0  0  0  0  0  0  0  0  0  0  0  0
   -0.2432   -7.3162   30.9889 H   0  0  0  0  0  0  0  0  0  0  0  0
  1  2  2  0
  2  3  1  0
  3  4  1  0
  4  5  1  0
  5  6  2  0
  6  7  1  0
  7  8  2  0
  8  9  1  0
  9 10  2  0
  2 11  1  0
 11 12  1  0
 12 13  1  0
 13 14  1  0
 14 15  1  0
 15 16  1  0
 16 17  2  0
 17 18  1  0
 18 19  2  0
 19 20  1  0
 20 21  2  0
 21 22  1  0
 22 23  2  0
 23 24  1  0
 15 25  1  0
 10  5  1  0
 25 11  1  0
 24 16  1  0
 23 18  1  0
  3 26  1  0
  4 27  1  0
  4 28  1  0
  6 29  1  0
  7 30  1  0
  8 31  1  0
  9 32  1  0
 11 33  1  0
 12 34  1  0
 12 35  1  0
 13 36  1  0
 13 37  1  0
 14 38  1  0
 14 39  1  0
 19 40  1  0
 20 41  1  0
 21 42  1  0
 22 43  1  0
 24 44  1  0
 25 45  1  0
 25 46  1  0
M  END
>  <Energy>  (595) 
25.855262902377717

>  <compound_id>  (595) 
29331

>  <target_id>  (595) 
1

>  <reference_id>  (595) 
52

>  <inspiration_ids>  (595) 
[52, 60]

>  <energy_score>  (595) 
-5.966265192699211

>  <distance_score>  (595) 
14.508026702897011

>  <path>  (595) 
/opt/xchem-fragalysis-2/maxwin/BulkDock/SCRATCH/511017/C29331-P52/C29331-P52.minimised.mol

>  <scratch_subdir>  (595) 
/opt/xchem-fragalysis-2/maxwin/BulkDock/SCRATCH/511017/C29331-P52

>  <fragmenstein_runtime>  (595) 
33.37426042556763

>  <fragmenstein_outcome>  (595) 
too moved

>  <fragmenstein_mode>  (595) 
expansion

>  <fragmenstein_error>  (595) 


$$$$
C29331-P60
     RDKit          3D

 46 49  0  0  0  0  0  0  0  0999 V2000
   13.1711  -13.0703   23.1906 O   0  0  0  0  0  0  0  0  0  0  0  0
   12.5793  -12.0369   23.3228 C   0  0  0  0  0  0  0  0  0  0  0  0
   12.9418  -10.6788   22.9361 N   0  0  0  0  0  0  0  0  0  0  0  0
   14.1687  -10.1473   22.3600 C   0  0  0  0  0  0  0  0  0  0  0  0
   14.2064   -8.6759   21.9296 C   0  0  0  0  0  0  0  0  0  0  0  0
   15.2142   -8.2744   21.0386 C   0  0  0  0  0  0  0  0  0  0  0  0
   15.3716   -6.9230   20.7155 C   0  0  0  0  0  0  0  0  0  0  0  0
   14.5350   -5.9868   21.2995 C   0  0  0  0  0  0  0  0  0  0  0  0
   13.5774   -6.4528   22.1840 C   0  0  0  0  0  0  0  0  0  0  0  0
   13.3639   -7.7672   22.4891 N   0  0  0  0  0  0  0  0  0  0  0  0
   11.1647  -12.0773   23.9652 C   0  0  0  0  0  0  0  0  0  0  0  0
   11.1348  -11.3526   25.3070 C   0  0  0  0  0  0  0  0  0  0  0  0
    9.7912  -11.5498   26.0043 C   0  0  0  0  0  0  0  0  0  0  0  0
    8.7062  -12.1711   25.1129 C   0  0  0  0  0  0  0  0  0  0  0  0
    9.0915  -13.5059   24.5419 N   0  0  0  0  0  0  0  0  0  0  0  0
    8.2986  -14.5822   25.1096 C   0  0  0  0  0  0  0  0  0  0  0  0
    7.2759  -14.4067   25.9454 N   0  0  0  0  0  0  0  0  0  0  0  0
    6.0406  -15.5049   25.5494 C   0  0  0  0  0  0  0  0  0  0  0  0
    4.3821  -15.3049   26.3905 C   0  0  0  0  0  0  0  0  0  0  0  0
    3.7464  -14.2770   26.2401 C   0  0  0  0  0  0  0  0  0  0  0  0
    4.2000  -14.3278   24.9785 C   0  0  0  0  0  0  0  0  0  0  0  0
    4.9014  -15.6472   24.1153 C   0  0  0  0  0  0  0  0  0  0  0  0
    6.2114  -16.4150   24.3922 C   0  0  0  0  0  0  0  0  0  0  0  0
    7.8538  -16.1762   24.7265 N   0  0  0  0  0  0  0  0  0  0  0  0
   10.5557  -13.5329   24.1103 C   0  0  0  0  0  0  0  0  0  0  0  0
   12.2375  -10.0373   23.2788 H   0  0  0  0  0  0  0  0  0  0  0  0
   14.3998  -10.7855   21.4992 H   0  0  0  0  0  0  0  0  0  0  0  0
   14.9575  -10.3076   23.1037 H   0  0  0  0  0  0  0  0  0  0  0  0
   15.8888   -9.0082   20.6032 H   0  0  0  0  0  0  0  0  0  0  0  0
   16.1560   -6.6136   20.0301 H   0  0  0  0  0  0  0  0  0  0  0  0
   14.6420   -4.9257   21.1029 H   0  0  0  0  0  0  0  0  0  0  0  0
   12.9498   -5.7437   22.7181 H   0  0  0  0  0  0  0  0  0  0  0  0
   10.5305  -11.4958   23.3044 H   0  0  0  0  0  0  0  0  0  0  0  0
   11.9439  -11.7092   25.9564 H   0  0  0  0  0  0  0  0  0  0  0  0
   11.3124  -10.2794   25.1703 H   0  0  0  0  0  0  0  0  0  0  0  0
    9.9383  -12.1814   26.8887 H   0  0  0  0  0  0  0  0  0  0  0  0
    9.4363  -10.5838   26.3835 H   0  0  0  0  0  0  0  0  0  0  0  0
    7.7792  -12.2087   25.6963 H   0  0  0  0  0  0  0  0  0  0  0  0
    8.4629  -11.5030   24.2918 H   0  0  0  0  0  0  0  0  0  0  0  0
    3.9722  -16.0324   27.1242 H   0  0  0  0  0  0  0  0  0  0  0  0
    2.8131  -14.0724   26.7342 H   0  0  0  0  0  0  0  0  0  0  0  0
    5.0141  -13.5687   25.2811 H   0  0  0  0  0  0  0  0  0  0  0  0
    4.1895  -16.1654   23.4848 H   0  0  0  0  0  0  0  0  0  0  0  0
    8.5523  -16.7435   24.2891 H   0  0  0  0  0  0  0  0  0  0  0  0
   11.2050  -14.0518   24.8211 H   0  0  0  0  0  0  0  0  0  0  0  0
   10.6830  -14.1045   23.1952 H   0  0  0  0  0  0  0  0  0  0  0  0
  1  2  2  0
  2  3  1  0
  3  4  1  0
  4  5  1  0
  5  6  2  0
  6  7  1  0
  7  8  2  0
  8  9  1  0
  9 10  2  0
  2 11  1  0
 11 12  1  0
 12 13  1  0
 13 14  1  0
 14 15  1  0
 15 16  1  0
 16 17  2  0
 17 18  1  0
 18 19  2  0
 19 20  1  0
 20 21  2  0
 21 22  1  0
 22 23  2  0
 23 24  1  0
 15 25  1  0
 10  5  1  0
 25 11  1  0
 24 16  1  0
 23 18  1  0
  3 26  1  0
  4 27  1  0
  4 28  1  0
  6 29  1  0
  7 30  1  0
  8 31  1  0
  9 32  1  0
 11 33  1  0
 12 34  1  0
 12 35  1  0
 13 36  1  0
 13 37  1  0
 14 38  1  0
 14 39  1  0
 19 40  1  0
 20 41  1  0
 21 42  1  0
 22 43  1  0
 24 44  1  0
 25 45  1  0
 25 46  1  0
M  END
>  <Energy>  (596) 
451.40182956313976

>  <compound_id>  (596) 
29331

>  <target_id>  (596) 
1

>  <reference_id>  (596) 
60

>  <inspiration_ids>  (596) 
[52, 60]

>  <energy_score>  (596) 
419.58030146805754

>  <distance_score>  (596) 
14.607964370403966

>  <path>  (596) 
/opt/xchem-fragalysis-2/maxwin/BulkDock/SCRATCH/511017/C29331-P60/C29331-P60.minimised.mol

>  <scratch_subdir>  (596) 
/opt/xchem-fragalysis-2/maxwin/BulkDock/SCRATCH/511017/C29331-P60

>  <fragmenstein_runtime>  (596) 
44.474621295928955

>  <fragmenstein_outcome>  (596) 
too moved

>  <fragmenstein_mode>  (596) 
expansion

>  <fragmenstein_error>  (596) 


$$$$
C29333-P52
     RDKit          3D

 39 42  0  0  0  0  0  0  0  0999 V2000
   -6.0136  -17.2889   28.6433 Br  0  0  0  0  0  0  0  0  0  0  0  0
   -4.8554  -15.9106   29.0485 C   0  0  0  0  0  0  0  0  0  0  0  0
   -4.8127  -15.0528   30.1506 C   0  0  0  0  0  0  0  0  0  0  0  0
   -3.9410  -13.9147   30.1458 C   0  0  0  0  0  0  0  0  0  0  0  0
   -3.1842  -13.6629   28.9395 C   0  0  0  0  0  0  0  0  0  0  0  0
   -2.1494  -12.8155   28.4700 N   0  0  0  0  0  0  0  0  0  0  0  0
   -1.2911  -13.2658   27.0552 C   0  0  0  0  0  0  0  0  0  0  0  0
    0.4246  -12.8527   26.2988 N   0  0  0  0  0  0  0  0  0  0  0  0
    1.9029  -13.1578   26.9024 C   0  0  0  0  0  0  0  0  0  0  0  0
    3.5326  -12.8156   26.0563 C   0  0  0  0  0  0  0  0  0  0  0  0
    3.9836  -12.2019   24.5090 C   0  0  0  0  0  0  0  0  0  0  0  0
    5.3681  -10.8699   24.7225 C   0  0  0  0  0  0  0  0  0  0  0  0
    6.2326  -10.2547   23.7536 C   0  0  0  0  0  0  0  0  0  0  0  0
    7.1125   -9.1696   23.9946 C   0  0  0  0  0  0  0  0  0  0  0  0
    7.1289   -8.5854   25.2283 C   0  0  0  0  0  0  0  0  0  0  0  0
    6.2600   -9.1283   26.1412 C   0  0  0  0  0  0  0  0  0  0  0  0
    5.4214  -10.2031   25.9150 N   0  0  0  0  0  0  0  0  0  0  0  0
    2.3574  -11.8016   23.5715 C   0  0  0  0  0  0  0  0  0  0  0  0
    0.8746  -11.7130   24.9235 C   0  0  0  0  0  0  0  0  0  0  0  0
   -2.1797  -14.2862   26.8040 N   0  0  0  0  0  0  0  0  0  0  0  0
   -3.2302  -14.5535   27.7982 C   0  0  0  0  0  0  0  0  0  0  0  0
   -4.0738  -15.7081   27.9189 C   0  0  0  0  0  0  0  0  0  0  0  0
   -5.4524  -15.2321   31.0105 H   0  0  0  0  0  0  0  0  0  0  0  0
   -3.8629  -13.2505   30.9995 H   0  0  0  0  0  0  0  0  0  0  0  0
   -1.7087  -12.1369   29.0612 H   0  0  0  0  0  0  0  0  0  0  0  0
    2.1241  -12.2574   26.4000 H   0  0  0  0  0  0  0  0  0  0  0  0
    1.9082  -14.2604   26.9692 H   0  0  0  0  0  0  0  0  0  0  0  0
    4.1021  -12.1870   26.7083 H   0  0  0  0  0  0  0  0  0  0  0  0
    3.8634  -13.8372   26.1102 H   0  0  0  0  0  0  0  0  0  0  0  0
    4.4206  -13.0526   23.9761 H   0  0  0  0  0  0  0  0  0  0  0  0
    6.3018  -10.4920   22.7196 H   0  0  0  0  0  0  0  0  0  0  0  0
    7.7497   -8.8003   23.1946 H   0  0  0  0  0  0  0  0  0  0  0  0
    7.7774   -7.7559   25.4754 H   0  0  0  0  0  0  0  0  0  0  0  0
    6.1937   -8.7268   27.1510 H   0  0  0  0  0  0  0  0  0  0  0  0
    2.2553  -10.9510   22.8771 H   0  0  0  0  0  0  0  0  0  0  0  0
    2.3787  -12.5336   22.7267 H   0  0  0  0  0  0  0  0  0  0  0  0
    1.2675  -10.9656   25.5695 H   0  0  0  0  0  0  0  0  0  0  0  0
    0.1533  -10.9010   24.9658 H   0  0  0  0  0  0  0  0  0  0  0  0
   -3.9319  -16.5218   27.2272 H   0  0  0  0  0  0  0  0  0  0  0  0
  1  2  1  0
  2  3  2  0
  3  4  1  0
  4  5  2  0
  5  6  1  0
  6  7  1  0
  7  8  1  0
  8  9  1  0
  9 10  1  0
 10 11  1  0
 11 12  1  0
 12 13  2  0
 13 14  1  0
 14 15  2  0
 15 16  1  0
 16 17  2  0
 11 18  1  0
 18 19  1  0
  7 20  2  0
 20 21  1  0
 21 22  2  0
 22  2  1  0
 21  5  1  0
 19  8  1  0
 17 12  1  0
  3 23  1  0
  4 24  1  0
  6 25  1  0
  9 26  1  0
  9 27  1  0
 10 28  1  0
 10 29  1  0
 11 30  1  0
 13 31  1  0
 14 32  1  0
 15 33  1  0
 16 34  1  0
 18 35  1  0
 18 36  1  0
 19 37  1  0
 19 38  1  0
 22 39  1  0
M  END
>  <Energy>  (597) 
597.09034058922111

>  <compound_id>  (597) 
29333

>  <target_id>  (597) 
1

>  <reference_id>  (597) 
52

>  <inspiration_ids>  (597) 
[52, 60]

>  <energy_score>  (597) 
561.6934311858658

>  <distance_score>  (597) 
12.975606002489599

>  <path>  (597) 
/opt/xchem-fragalysis-2/maxwin/BulkDock/SCRATCH/511017/C29333-P52/C29333-P52.minimised.mol

>  <scratch_subdir>  (597) 
/opt/xchem-fragalysis-2/maxwin/BulkDock/SCRATCH/511017/C29333-P52

>  <fragmenstein_runtime>  (597) 
24.854064226150513

>  <fragmenstein_outcome>  (597) 
too moved

>  <fragmenstein_mode>  (597) 
expansion

>  <fragmenstein_error>  (597) 


$$$$
C29333-P60
     RDKit          3D

 39 42  0  0  0  0  0  0  0  0999 V2000
  -11.4024  -21.6382   29.2801 Br  0  0  0  0  0  0  0  0  0  0  0  0
   -9.7752  -20.5980   29.7551 C   0  0  0  0  0  0  0  0  0  0  0  0
   -9.3231  -21.1510   31.5414 C   0  0  0  0  0  0  0  0  0  0  0  0
   -7.4064  -21.4168   32.0240 C   0  0  0  0  0  0  0  0  0  0  0  0
   -5.9834  -20.3224   31.1835 C   0  0  0  0  0  0  0  0  0  0  0  0
   -4.7132  -19.8008   31.2523 N   0  0  0  0  0  0  0  0  0  0  0  0
   -4.3632  -19.0365   30.1009 C   0  0  0  0  0  0  0  0  0  0  0  0
   -2.9897  -18.8142   29.8765 N   0  0  0  0  0  0  0  0  0  0  0  0
   -2.5701  -17.6832   29.0352 C   0  0  0  0  0  0  0  0  0  0  0  0
   -1.0520  -17.3587   29.2229 C   0  0  0  0  0  0  0  0  0  0  0  0
   -0.0500  -18.5342   28.9862 C   0  0  0  0  0  0  0  0  0  0  0  0
    1.2002  -18.3201   28.0137 C   0  0  0  0  0  0  0  0  0  0  0  0
    1.5021  -19.2354   26.9925 C   0  0  0  0  0  0  0  0  0  0  0  0
    2.7070  -19.1555   26.2505 C   0  0  0  0  0  0  0  0  0  0  0  0
    3.6388  -18.1812   26.5426 C   0  0  0  0  0  0  0  0  0  0  0  0
    3.2986  -17.3135   27.5548 C   0  0  0  0  0  0  0  0  0  0  0  0
    2.1134  -17.3357   28.2757 N   0  0  0  0  0  0  0  0  0  0  0  0
   -0.9078  -19.8165   28.7920 C   0  0  0  0  0  0  0  0  0  0  0  0
   -2.0618  -19.9652   29.8357 C   0  0  0  0  0  0  0  0  0  0  0  0
   -5.3836  -18.5701   29.3529 N   0  0  0  0  0  0  0  0  0  0  0  0
   -6.5902  -19.1649   29.7775 C   0  0  0  0  0  0  0  0  0  0  0  0
   -8.2914  -19.4010   28.8382 C   0  0  0  0  0  0  0  0  0  0  0  0
  -10.0979  -21.8080   31.9783 H   0  0  0  0  0  0  0  0  0  0  0  0
   -7.2475  -21.5135   33.0935 H   0  0  0  0  0  0  0  0  0  0  0  0
   -4.0314  -20.0689   31.9361 H   0  0  0  0  0  0  0  0  0  0  0  0
   -2.7788  -17.8962   27.9795 H   0  0  0  0  0  0  0  0  0  0  0  0
   -3.1412  -16.7890   29.3102 H   0  0  0  0  0  0  0  0  0  0  0  0
   -0.8238  -16.5020   28.5998 H   0  0  0  0  0  0  0  0  0  0  0  0
   -0.9148  -17.0119   30.2567 H   0  0  0  0  0  0  0  0  0  0  0  0
    0.4575  -18.6795   29.9531 H   0  0  0  0  0  0  0  0  0  0  0  0
    0.8185  -20.0448   26.7543 H   0  0  0  0  0  0  0  0  0  0  0  0
    2.8950  -19.8732   25.4550 H   0  0  0  0  0  0  0  0  0  0  0  0
    4.5752  -18.0964   26.0074 H   0  0  0  0  0  0  0  0  0  0  0  0
    3.9979  -16.5222   27.8117 H   0  0  0  0  0  0  0  0  0  0  0  0
   -1.3390  -19.8220   27.7825 H   0  0  0  0  0  0  0  0  0  0  0  0
   -0.2650  -20.7024   28.8643 H   0  0  0  0  0  0  0  0  0  0  0  0
   -2.6089  -20.8865   29.5986 H   0  0  0  0  0  0  0  0  0  0  0  0
   -1.6251  -20.0908   30.8335 H   0  0  0  0  0  0  0  0  0  0  0  0
   -8.3457  -19.0143   27.8194 H   0  0  0  0  0  0  0  0  0  0  0  0
  1  2  1  0
  2  3  2  0
  3  4  1  0
  4  5  2  0
  5  6  1  0
  6  7  1  0
  7  8  1  0
  8  9  1  0
  9 10  1  0
 10 11  1  0
 11 12  1  0
 12 13  2  0
 13 14  1  0
 14 15  2  0
 15 16  1  0
 16 17  2  0
 11 18  1  0
 18 19  1  0
  7 20  2  0
 20 21  1  0
 21 22  2  0
 22  2  1  0
 21  5  1  0
 19  8  1  0
 17 12  1  0
  3 23  1  0
  4 24  1  0
  6 25  1  0
  9 26  1  0
  9 27  1  0
 10 28  1  0
 10 29  1  0
 11 30  1  0
 13 31  1  0
 14 32  1  0
 15 33  1  0
 16 34  1  0
 18 35  1  0
 18 36  1  0
 19 37  1  0
 19 38  1  0
 22 39  1  0
M  END
>  <Energy>  (598) 
688.89265631290766

>  <compound_id>  (598) 
29333

>  <target_id>  (598) 
1

>  <reference_id>  (598) 
60

>  <inspiration_ids>  (598) 
[52, 60]

>  <energy_score>  (598) 
653.4957469095679

>  <distance_score>  (598) 
15.29736157178379

>  <path>  (598) 
/opt/xchem-fragalysis-2/maxwin/BulkDock/SCRATCH/511017/C29333-P60/C29333-P60.minimised.mol

>  <scratch_subdir>  (598) 
/opt/xchem-fragalysis-2/maxwin/BulkDock/SCRATCH/511017/C29333-P60

>  <fragmenstein_runtime>  (598) 
33.68487095832825

>  <fragmenstein_outcome>  (598) 
too moved

>  <fragmenstein_mode>  (598) 
expansion

>  <fragmenstein_error>  (598) 


$$$$
C29344-P52
     RDKit          3D

 38 41  0  0  0  0  0  0  0  0999 V2000
   -1.7478  -18.1193   32.0434 O   0  0  0  0  0  0  0  0  0  0  0  0
   -1.7717  -19.0404   31.2673 C   0  0  0  0  0  0  0  0  0  0  0  0
   -2.6439  -20.2381   31.2186 N   0  0  0  0  0  0  0  0  0  0  0  0
   -3.7813  -20.6082   32.0245 C   0  0  0  0  0  0  0  0  0  0  0  0
   -4.8009  -19.4414   32.4976 N   0  0  0  0  0  0  0  0  0  0  0  0
   -6.5537  -19.9755   32.4717 C   0  0  0  0  0  0  0  0  0  0  0  0
   -7.7461  -19.7159   33.2699 C   0  0  0  0  0  0  0  0  0  0  0  0
   -8.9520  -20.8623   33.3491 C   0  0  0  0  0  0  0  0  0  0  0  0
   -8.8741  -22.2208   33.2286 C   0  0  0  0  0  0  0  0  0  0  0  0
   -7.6075  -22.5806   32.9280 C   0  0  0  0  0  0  0  0  0  0  0  0
   -6.4228  -21.5420   32.6440 C   0  0  0  0  0  0  0  0  0  0  0  0
   -4.9388  -21.9825   31.6949 N   0  0  0  0  0  0  0  0  0  0  0  0
   -5.4392  -22.8753   29.9837 C   0  0  0  0  0  0  0  0  0  0  0  0
   -7.3317  -23.5807   30.1620 C   0  0  0  0  0  0  0  0  0  0  0  0
   -8.6317  -23.3094   29.4330 C   0  0  0  0  0  0  0  0  0  0  0  0
   -8.5513  -22.2307   28.4527 C   0  0  0  0  0  0  0  0  0  0  0  0
   -7.1125  -21.6269   27.9386 C   0  0  0  0  0  0  0  0  0  0  0  0
   -5.5817  -21.9846   28.4367 C   0  0  0  0  0  0  0  0  0  0  0  0
   -0.7373  -18.7817   30.0822 C   0  0  0  0  0  0  0  0  0  0  0  0
    0.4126  -17.9817   30.3133 C   0  0  0  0  0  0  0  0  0  0  0  0
    1.2487  -17.5444   29.2562 C   0  0  0  0  0  0  0  0  0  0  0  0
    0.9132  -17.8757   27.9551 C   0  0  0  0  0  0  0  0  0  0  0  0
   -0.2326  -18.6480   27.7914 C   0  0  0  0  0  0  0  0  0  0  0  0
   -1.0559  -19.1202   28.8025 N   0  0  0  0  0  0  0  0  0  0  0  0
   -2.4382  -20.7642   30.3787 H   0  0  0  0  0  0  0  0  0  0  0  0
   -7.9001  -18.6759   33.5468 H   0  0  0  0  0  0  0  0  0  0  0  0
  -10.0056  -20.5301   33.3415 H   0  0  0  0  0  0  0  0  0  0  0  0
   -9.6993  -22.9032   33.3485 H   0  0  0  0  0  0  0  0  0  0  0  0
   -7.3179  -23.6206   32.9508 H   0  0  0  0  0  0  0  0  0  0  0  0
   -7.6734  -23.8669   31.1628 H   0  0  0  0  0  0  0  0  0  0  0  0
   -9.5779  -23.6749   29.8169 H   0  0  0  0  0  0  0  0  0  0  0  0
   -9.4989  -21.7823   28.1618 H   0  0  0  0  0  0  0  0  0  0  0  0
   -7.2537  -20.6695   27.4864 H   0  0  0  0  0  0  0  0  0  0  0  0
   -4.7471  -21.4458   27.9745 H   0  0  0  0  0  0  0  0  0  0  0  0
    0.6348  -17.6669   31.3317 H   0  0  0  0  0  0  0  0  0  0  0  0
    2.1199  -16.9319   29.4708 H   0  0  0  0  0  0  0  0  0  0  0  0
    1.5061  -17.5515   27.1092 H   0  0  0  0  0  0  0  0  0  0  0  0
   -0.5531  -18.9421   26.7937 H   0  0  0  0  0  0  0  0  0  0  0  0
  1  2  2  0
  2  3  1  0
  3  4  1  0
  4  5  2  0
  5  6  1  0
  6  7  2  0
  7  8  1  0
  8  9  2  0
  9 10  1  0
 10 11  2  0
 11 12  1  0
 12 13  1  0
 13 14  2  0
 14 15  1  0
 15 16  2  0
 16 17  1  0
 17 18  2  0
  2 19  1  0
 19 20  2  0
 20 21  1  0
 21 22  2  0
 22 23  1  0
 23 24  2  0
 12  4  1  0
 18 13  1  0
 24 19  1  0
 11  6  1  0
  3 25  1  0
  7 26  1  0
  8 27  1  0
  9 28  1  0
 10 29  1  0
 14 30  1  0
 15 31  1  0
 16 32  1  0
 17 33  1  0
 18 34  1  0
 20 35  1  0
 21 36  1  0
 22 37  1  0
 23 38  1  0
M  END
>  <Energy>  (599) 
751.21115386633539

>  <compound_id>  (599) 
29344

>  <target_id>  (599) 
1

>  <reference_id>  (599) 
52

>  <inspiration_ids>  (599) 
[52, 60]

>  <energy_score>  (599) 
615.2654614090294

>  <distance_score>  (599) 
14.9276337628554

>  <path>  (599) 
/opt/xchem-fragalysis-2/maxwin/BulkDock/SCRATCH/511017/C29344-P52/C29344-P52.minimised.mol

>  <scratch_subdir>  (599) 
/opt/xchem-fragalysis-2/maxwin/BulkDock/SCRATCH/511017/C29344-P52

>  <fragmenstein_runtime>  (599) 
15.73325514793396

>  <fragmenstein_outcome>  (599) 
too moved

>  <fragmenstein_mode>  (599) 
expansion

>  <fragmenstein_error>  (599) 


$$$$
C29344-P60
     RDKit          3D

 38 41  0  0  0  0  0  0  0  0999 V2000
    1.5567  -13.9138   26.4680 O   0  0  0  0  0  0  0  0  0  0  0  0
    0.8463  -13.6096   25.5571 C   0  0  0  0  0  0  0  0  0  0  0  0
   -1.1198  -13.8158   25.7356 N   0  0  0  0  0  0  0  0  0  0  0  0
   -2.1277  -14.5827   27.0954 C   0  0  0  0  0  0  0  0  0  0  0  0
   -1.3274  -15.3093   27.9138 N   0  0  0  0  0  0  0  0  0  0  0  0
   -1.8131  -16.3266   28.6890 C   0  0  0  0  0  0  0  0  0  0  0  0
   -1.1431  -17.2906   29.4724 C   0  0  0  0  0  0  0  0  0  0  0  0
   -1.8655  -18.1855   30.2755 C   0  0  0  0  0  0  0  0  0  0  0  0
   -3.2436  -18.1021   30.3214 C   0  0  0  0  0  0  0  0  0  0  0  0
   -3.9065  -17.1570   29.5314 C   0  0  0  0  0  0  0  0  0  0  0  0
   -3.1592  -16.2867   28.6743 C   0  0  0  0  0  0  0  0  0  0  0  0
   -3.4753  -15.1182   27.9071 N   0  0  0  0  0  0  0  0  0  0  0  0
   -4.8358  -14.7119   28.3202 C   0  0  0  0  0  0  0  0  0  0  0  0
   -5.8763  -15.5692   27.8499 C   0  0  0  0  0  0  0  0  0  0  0  0
   -7.1582  -15.0831   27.6171 C   0  0  0  0  0  0  0  0  0  0  0  0
   -7.4598  -13.7863   28.0091 C   0  0  0  0  0  0  0  0  0  0  0  0
   -6.4813  -13.0030   28.6363 C   0  0  0  0  0  0  0  0  0  0  0  0
   -5.1529  -13.4431   28.7677 C   0  0  0  0  0  0  0  0  0  0  0  0
    1.9351  -13.1592   24.0262 C   0  0  0  0  0  0  0  0  0  0  0  0
    2.7755  -12.2560   23.6207 C   0  0  0  0  0  0  0  0  0  0  0  0
    3.5580  -12.1356   22.3251 C   0  0  0  0  0  0  0  0  0  0  0  0
    3.7964  -13.0843   21.0273 C   0  0  0  0  0  0  0  0  0  0  0  0
    3.2775  -14.2649   21.3687 C   0  0  0  0  0  0  0  0  0  0  0  0
    2.6060  -14.3611   22.9901 N   0  0  0  0  0  0  0  0  0  0  0  0
   -1.5440  -13.4557   24.9585 H   0  0  0  0  0  0  0  0  0  0  0  0
   -0.0575  -17.3092   29.4664 H   0  0  0  0  0  0  0  0  0  0  0  0
   -1.3347  -18.9058   30.8914 H   0  0  0  0  0  0  0  0  0  0  0  0
   -3.8111  -18.7375   30.9973 H   0  0  0  0  0  0  0  0  0  0  0  0
   -4.9806  -17.0671   29.6552 H   0  0  0  0  0  0  0  0  0  0  0  0
   -5.6244  -16.5674   27.5173 H   0  0  0  0  0  0  0  0  0  0  0  0
   -7.9074  -15.7054   27.1389 H   0  0  0  0  0  0  0  0  0  0  0  0
   -8.4590  -13.3860   27.8601 H   0  0  0  0  0  0  0  0  0  0  0  0
   -6.7384  -11.9956   28.9581 H   0  0  0  0  0  0  0  0  0  0  0  0
   -4.3802  -12.7733   29.1285 H   0  0  0  0  0  0  0  0  0  0  0  0
    3.5952  -12.7874   24.1723 H   0  0  0  0  0  0  0  0  0  0  0  0
    4.0700  -11.1312   22.2420 H   0  0  0  0  0  0  0  0  0  0  0  0
    4.4930  -12.8922   20.2229 H   0  0  0  0  0  0  0  0  0  0  0  0
    3.6132  -15.1774   20.8782 H   0  0  0  0  0  0  0  0  0  0  0  0
  1  2  2  0
  2  3  1  0
  3  4  1  0
  4  5  2  0
  5  6  1  0
  6  7  2  0
  7  8  1  0
  8  9  2  0
  9 10  1  0
 10 11  2  0
 11 12  1  0
 12 13  1  0
 13 14  2  0
 14 15  1  0
 15 16  2  0
 16 17  1  0
 17 18  2  0
  2 19  1  0
 19 20  2  0
 20 21  1  0
 21 22  2  0
 22 23  1  0
 23 24  2  0
 12  4  1  0
 18 13  1  0
 24 19  1  0
 11  6  1  0
  3 25  1  0
  7 26  1  0
  8 27  1  0
  9 28  1  0
 10 29  1  0
 14 30  1  0
 15 31  1  0
 16 32  1  0
 17 33  1  0
 18 34  1  0
 20 35  1  0
 21 36  1  0
 22 37  1  0
 23 38  1  0
M  END
>  <Energy>  (600) 
702.74967367260638

>  <compound_id>  (600) 
29344

>  <target_id>  (600) 
1

>  <reference_id>  (600) 
60

>  <inspiration_ids>  (600) 
[52, 60]

>  <energy_score>  (600) 
566.803981215305

>  <distance_score>  (600) 
13.264385773868892

>  <path>  (600) 
/opt/xchem-fragalysis-2/maxwin/BulkDock/SCRATCH/511017/C29344-P60/C29344-P60.minimised.mol

>  <scratch_subdir>  (600) 
/opt/xchem-fragalysis-2/maxwin/BulkDock/SCRATCH/511017/C29344-P60

>  <fragmenstein_runtime>  (600) 
15.365887641906738

>  <fragmenstein_outcome>  (600) 
too moved

>  <fragmenstein_mode>  (600) 
expansion

>  <fragmenstein_error>  (600) 


$$$$
C29345-P52
     RDKit          3D

 45 48  0  0  0  0  0  0  0  0999 V2000
   -0.9619  -19.2752   25.5135 C   0  0  0  0  0  0  0  0  0  0  0  0
   -2.1199  -18.9316   24.6733 N   0  0  0  0  0  0  0  0  0  0  0  0
   -2.9469  -20.2091   24.4273 C   0  0  0  0  0  0  0  0  0  0  0  0
   -3.7977  -20.8475   25.5610 C   0  0  0  0  0  0  0  0  0  0  0  0
   -4.6584  -21.9299   25.3434 C   0  0  0  0  0  0  0  0  0  0  0  0
   -5.8225  -22.2282   26.3784 C   0  0  0  0  0  0  0  0  0  0  0  0
   -6.5018  -21.5880   27.5207 C   0  0  0  0  0  0  0  0  0  0  0  0
   -8.2059  -21.8535   28.1448 N   0  0  0  0  0  0  0  0  0  0  0  0
   -9.4079  -20.9875   28.2632 C   0  0  0  0  0  0  0  0  0  0  0  0
  -10.5831  -21.3735   28.6482 N   0  0  0  0  0  0  0  0  0  0  0  0
  -10.3900  -22.5943   29.1005 C   0  0  0  0  0  0  0  0  0  0  0  0
  -11.3434  -23.2961   29.8658 C   0  0  0  0  0  0  0  0  0  0  0  0
  -10.9726  -24.4426   30.5324 C   0  0  0  0  0  0  0  0  0  0  0  0
   -9.6964  -24.9133   30.3545 C   0  0  0  0  0  0  0  0  0  0  0  0
   -8.7813  -24.2783   29.4972 C   0  0  0  0  0  0  0  0  0  0  0  0
   -9.0676  -23.0385   28.8704 C   0  0  0  0  0  0  0  0  0  0  0  0
   -5.3824  -20.5407   27.5296 C   0  0  0  0  0  0  0  0  0  0  0  0
   -4.0626  -20.2578   26.7851 C   0  0  0  0  0  0  0  0  0  0  0  0
   -1.5539  -18.3667   23.3387 C   0  0  0  0  0  0  0  0  0  0  0  0
   -0.5034  -17.1538   23.2334 C   0  0  0  0  0  0  0  0  0  0  0  0
   -0.8140  -15.8468   23.6228 C   0  0  0  0  0  0  0  0  0  0  0  0
    0.0861  -14.7876   23.3631 C   0  0  0  0  0  0  0  0  0  0  0  0
    1.2839  -15.0301   22.7047 C   0  0  0  0  0  0  0  0  0  0  0  0
    1.5297  -16.3335   22.3292 C   0  0  0  0  0  0  0  0  0  0  0  0
    0.6797  -17.3797   22.5764 N   0  0  0  0  0  0  0  0  0  0  0  0
   -0.2935  -19.9922   25.0230 H   0  0  0  0  0  0  0  0  0  0  0  0
   -1.2740  -19.7040   26.4704 H   0  0  0  0  0  0  0  0  0  0  0  0
   -0.3863  -18.3767   25.7598 H   0  0  0  0  0  0  0  0  0  0  0  0
   -3.6691  -19.9464   23.6433 H   0  0  0  0  0  0  0  0  0  0  0  0
   -2.2886  -20.9885   24.0225 H   0  0  0  0  0  0  0  0  0  0  0  0
   -4.6839  -22.4776   24.4019 H   0  0  0  0  0  0  0  0  0  0  0  0
   -4.8668  -22.4464   27.0045 H   0  0  0  0  0  0  0  0  0  0  0  0
   -9.3249  -20.0340   27.8010 H   0  0  0  0  0  0  0  0  0  0  0  0
  -12.3243  -22.8583   30.0216 H   0  0  0  0  0  0  0  0  0  0  0  0
  -11.6560  -24.9392   31.2058 H   0  0  0  0  0  0  0  0  0  0  0  0
   -9.3760  -25.7795   30.9198 H   0  0  0  0  0  0  0  0  0  0  0  0
   -7.8378  -24.7742   29.3841 H   0  0  0  0  0  0  0  0  0  0  0  0
   -5.6795  -19.4673   27.3709 H   0  0  0  0  0  0  0  0  0  0  0  0
   -3.5802  -19.3030   27.0200 H   0  0  0  0  0  0  0  0  0  0  0  0
   -2.4190  -18.0475   22.7436 H   0  0  0  0  0  0  0  0  0  0  0  0
   -1.0894  -19.2037   22.7995 H   0  0  0  0  0  0  0  0  0  0  0  0
   -1.7581  -15.6444   24.1200 H   0  0  0  0  0  0  0  0  0  0  0  0
   -0.1627  -13.7794   23.6851 H   0  0  0  0  0  0  0  0  0  0  0  0
    1.9896  -14.2373   22.4948 H   0  0  0  0  0  0  0  0  0  0  0  0
    2.4393  -16.6027   21.7994 H   0  0  0  0  0  0  0  0  0  0  0  0
  1  2  1  0
  2  3  1  0
  3  4  1  0
  4  5  2  0
  5  6  1  0
  6  7  2  0
  7  8  1  0
  8  9  1  0
  9 10  2  0
 10 11  1  0
 11 12  2  0
 12 13  1  0
 13 14  2  0
 14 15  1  0
 15 16  2  0
  7 17  1  0
 17 18  2  0
  2 19  1  0
 19 20  1  0
 20 21  2  0
 21 22  1  0
 22 23  2  0
 23 24  1  0
 24 25  2  0
 18  4  1  0
 25 20  1  0
 16  8  1  0
 16 11  1  0
  1 26  1  0
  1 27  1  0
  1 28  1  0
  3 29  1  0
  3 30  1  0
  5 31  1  0
  6 32  1  0
  9 33  1  0
 12 34  1  0
 13 35  1  0
 14 36  1  0
 15 37  1  0
 17 38  1  0
 18 39  1  0
 19 40  1  0
 19 41  1  0
 21 42  1  0
 22 43  1  0
 23 44  1  0
 24 45  1  0
M  END
>  <Energy>  (601) 
420.09426631588252

>  <compound_id>  (601) 
29345

>  <target_id>  (601) 
1

>  <reference_id>  (601) 
52

>  <inspiration_ids>  (601) 
[52, 60]

>  <energy_score>  (601) 
275.69760958834297

>  <distance_score>  (601) 
11.92112021197153

>  <path>  (601) 
/opt/xchem-fragalysis-2/maxwin/BulkDock/SCRATCH/511017/C29345-P52/C29345-P52.minimised.mol

>  <scratch_subdir>  (601) 
/opt/xchem-fragalysis-2/maxwin/BulkDock/SCRATCH/511017/C29345-P52

>  <fragmenstein_runtime>  (601) 
22.84022831916809

>  <fragmenstein_outcome>  (601) 
too moved

>  <fragmenstein_mode>  (601) 
expansion

>  <fragmenstein_error>  (601) 


$$$$
C29345-P60
     RDKit          3D

 45 48  0  0  0  0  0  0  0  0999 V2000
   -6.6660  -20.0562   27.0802 C   0  0  0  0  0  0  0  0  0  0  0  0
   -7.7937  -18.6125   27.6108 N   0  0  0  0  0  0  0  0  0  0  0  0
   -9.0539  -19.3792   28.1903 C   0  0  0  0  0  0  0  0  0  0  0  0
  -10.1635  -20.9691   28.9307 C   0  0  0  0  0  0  0  0  0  0  0  0
  -10.6617  -20.9455   30.2279 C   0  0  0  0  0  0  0  0  0  0  0  0
  -11.7965  -21.5352   30.6485 C   0  0  0  0  0  0  0  0  0  0  0  0
  -12.1279  -22.7640   30.2273 C   0  0  0  0  0  0  0  0  0  0  0  0
  -12.6527  -23.5435   31.3744 N   0  0  0  0  0  0  0  0  0  0  0  0
  -12.9692  -22.8378   32.5624 C   0  0  0  0  0  0  0  0  0  0  0  0
  -11.7710  -22.5365   33.0922 N   0  0  0  0  0  0  0  0  0  0  0  0
  -10.9307  -23.4931   32.4848 C   0  0  0  0  0  0  0  0  0  0  0  0
   -9.6271  -23.9544   32.5356 C   0  0  0  0  0  0  0  0  0  0  0  0
   -9.5357  -25.3166   32.8132 C   0  0  0  0  0  0  0  0  0  0  0  0
  -10.6727  -25.9079   33.3357 C   0  0  0  0  0  0  0  0  0  0  0  0
  -11.8747  -25.2687   33.1458 C   0  0  0  0  0  0  0  0  0  0  0  0
  -11.8113  -24.4524   32.0321 C   0  0  0  0  0  0  0  0  0  0  0  0
  -11.6097  -23.0877   28.9817 C   0  0  0  0  0  0  0  0  0  0  0  0
  -10.8248  -22.0897   28.2579 C   0  0  0  0  0  0  0  0  0  0  0  0
   -6.9839  -16.9882   27.9654 C   0  0  0  0  0  0  0  0  0  0  0  0
   -5.7360  -16.0419   27.1469 C   0  0  0  0  0  0  0  0  0  0  0  0
   -6.0021  -14.7352   26.6883 C   0  0  0  0  0  0  0  0  0  0  0  0
   -4.9948  -13.9715   26.0392 C   0  0  0  0  0  0  0  0  0  0  0  0
   -3.7242  -14.5005   25.8562 C   0  0  0  0  0  0  0  0  0  0  0  0
   -3.5227  -15.7854   26.3268 C   0  0  0  0  0  0  0  0  0  0  0  0
   -4.4805  -16.5569   26.9495 N   0  0  0  0  0  0  0  0  0  0  0  0
   -7.1811  -20.9937   27.3450 H   0  0  0  0  0  0  0  0  0  0  0  0
   -6.2840  -19.7586   26.0970 H   0  0  0  0  0  0  0  0  0  0  0  0
   -5.5519  -20.0692   27.2331 H   0  0  0  0  0  0  0  0  0  0  0  0
   -9.6207  -18.5603   27.8388 H   0  0  0  0  0  0  0  0  0  0  0  0
   -8.3036  -19.1764   28.8900 H   0  0  0  0  0  0  0  0  0  0  0  0
  -10.2795  -20.4696   31.1181 H   0  0  0  0  0  0  0  0  0  0  0  0
  -12.0945  -21.1350   31.6085 H   0  0  0  0  0  0  0  0  0  0  0  0
  -13.9580  -22.4850   32.8093 H   0  0  0  0  0  0  0  0  0  0  0  0
   -8.8000  -23.3175   32.7959 H   0  0  0  0  0  0  0  0  0  0  0  0
   -8.5728  -25.7973   32.8965 H   0  0  0  0  0  0  0  0  0  0  0  0
  -10.6537  -26.7960   33.9396 H   0  0  0  0  0  0  0  0  0  0  0  0
  -12.7753  -25.4035   33.7324 H   0  0  0  0  0  0  0  0  0  0  0  0
  -11.8268  -24.0417   28.5145 H   0  0  0  0  0  0  0  0  0  0  0  0
  -10.8304  -22.2369   27.1950 H   0  0  0  0  0  0  0  0  0  0  0  0
   -7.8059  -16.2929   28.0039 H   0  0  0  0  0  0  0  0  0  0  0  0
   -6.2952  -17.1245   28.7921 H   0  0  0  0  0  0  0  0  0  0  0  0
   -6.9926  -14.3102   26.8260 H   0  0  0  0  0  0  0  0  0  0  0  0
   -5.2279  -12.9689   25.6916 H   0  0  0  0  0  0  0  0  0  0  0  0
   -2.9288  -13.9464   25.3755 H   0  0  0  0  0  0  0  0  0  0  0  0
   -2.5560  -16.2721   26.2216 H   0  0  0  0  0  0  0  0  0  0  0  0
  1  2  1  0
  2  3  1  0
  3  4  1  0
  4  5  2  0
  5  6  1  0
  6  7  2  0
  7  8  1  0
  8  9  1  0
  9 10  2  0
 10 11  1  0
 11 12  2  0
 12 13  1  0
 13 14  2  0
 14 15  1  0
 15 16  2  0
  7 17  1  0
 17 18  2  0
  2 19  1  0
 19 20  1  0
 20 21  2  0
 21 22  1  0
 22 23  2  0
 23 24  1  0
 24 25  2  0
 18  4  1  0
 25 20  1  0
 16  8  1  0
 16 11  1  0
  1 26  1  0
  1 27  1  0
  1 28  1  0
  3 29  1  0
  3 30  1  0
  5 31  1  0
  6 32  1  0
  9 33  1  0
 12 34  1  0
 13 35  1  0
 14 36  1  0
 15 37  1  0
 17 38  1  0
 18 39  1  0
 19 40  1  0
 19 41  1  0
 21 42  1  0
 22 43  1  0
 23 44  1  0
 24 45  1  0
M  END
>  <Energy>  (602) 
679.29626416447036

>  <compound_id>  (602) 
29345

>  <target_id>  (602) 
1

>  <reference_id>  (602) 
60

>  <inspiration_ids>  (602) 
[52, 60]

>  <energy_score>  (602) 
534.8996074369185

>  <distance_score>  (602) 
13.200314803008414

>  <path>  (602) 
/opt/xchem-fragalysis-2/maxwin/BulkDock/SCRATCH/511017/C29345-P60/C29345-P60.minimised.mol

>  <scratch_subdir>  (602) 
/opt/xchem-fragalysis-2/maxwin/BulkDock/SCRATCH/511017/C29345-P60

>  <fragmenstein_runtime>  (602) 
40.500898361206055

>  <fragmenstein_outcome>  (602) 
too moved

>  <fragmenstein_mode>  (602) 
expansion

>  <fragmenstein_error>  (602) 


$$$$
C29347-P52
     RDKit          3D

 42 46  0  0  0  0  0  0  0  0999 V2000
   -0.8781  -16.9216   19.8101 C   0  0  0  0  0  0  0  0  0  0  0  0
   -0.5703  -18.2055   20.2071 C   0  0  0  0  0  0  0  0  0  0  0  0
   -1.5481  -19.1863   20.1085 C   0  0  0  0  0  0  0  0  0  0  0  0
   -2.8275  -18.8681   19.6384 C   0  0  0  0  0  0  0  0  0  0  0  0
   -3.8696  -19.9545   19.4821 C   0  0  0  0  0  0  0  0  0  0  0  0
   -3.7272  -20.6927   18.3585 N   0  0  0  0  0  0  0  0  0  0  0  0
   -4.5960  -21.7013   18.1793 C   0  0  0  0  0  0  0  0  0  0  0  0
   -5.5884  -22.0290   19.0718 C   0  0  0  0  0  0  0  0  0  0  0  0
   -5.6739  -21.2651   20.2215 C   0  0  0  0  0  0  0  0  0  0  0  0
   -6.7993  -21.5503   21.1514 C   0  0  0  0  0  0  0  0  0  0  0  0
   -6.6727  -22.1680   22.3857 C   0  0  0  0  0  0  0  0  0  0  0  0
   -7.8117  -22.4543   23.2045 C   0  0  0  0  0  0  0  0  0  0  0  0
   -9.1319  -22.0475   22.9026 C   0  0  0  0  0  0  0  0  0  0  0  0
  -10.4439  -22.3475   23.6875 N   0  0  0  0  0  0  0  0  0  0  0  0
  -11.5776  -21.5888   23.4486 C   0  0  0  0  0  0  0  0  0  0  0  0
  -12.3336  -21.4690   24.5119 N   0  0  0  0  0  0  0  0  0  0  0  0
  -11.8178  -22.2761   25.4838 C   0  0  0  0  0  0  0  0  0  0  0  0
  -12.0235  -22.3621   26.8844 C   0  0  0  0  0  0  0  0  0  0  0  0
  -11.5764  -23.4323   27.6445 C   0  0  0  0  0  0  0  0  0  0  0  0
  -10.9151  -24.4261   26.9828 C   0  0  0  0  0  0  0  0  0  0  0  0
  -10.5285  -24.2300   25.6424 C   0  0  0  0  0  0  0  0  0  0  0  0
  -10.8284  -23.0698   24.9136 C   0  0  0  0  0  0  0  0  0  0  0  0
   -9.2400  -21.5700   21.5925 C   0  0  0  0  0  0  0  0  0  0  0  0
   -8.1166  -21.3745   20.7371 C   0  0  0  0  0  0  0  0  0  0  0  0
   -4.7971  -20.2315   20.4603 N   0  0  0  0  0  0  0  0  0  0  0  0
   -3.1131  -17.6053   19.2072 N   0  0  0  0  0  0  0  0  0  0  0  0
   -2.1404  -16.6745   19.3062 C   0  0  0  0  0  0  0  0  0  0  0  0
   -0.1791  -16.1107   19.9288 H   0  0  0  0  0  0  0  0  0  0  0  0
    0.3955  -18.4618   20.6278 H   0  0  0  0  0  0  0  0  0  0  0  0
   -1.3262  -20.2053   20.4124 H   0  0  0  0  0  0  0  0  0  0  0  0
   -4.4725  -22.2577   17.2545 H   0  0  0  0  0  0  0  0  0  0  0  0
   -6.2767  -22.8401   18.8677 H   0  0  0  0  0  0  0  0  0  0  0  0
   -5.6864  -22.4636   22.7382 H   0  0  0  0  0  0  0  0  0  0  0  0
   -7.5661  -23.0086   24.1035 H   0  0  0  0  0  0  0  0  0  0  0  0
  -11.7013  -21.0349   22.5347 H   0  0  0  0  0  0  0  0  0  0  0  0
  -12.5212  -21.5649   27.3975 H   0  0  0  0  0  0  0  0  0  0  0  0
  -11.7897  -23.4940   28.7053 H   0  0  0  0  0  0  0  0  0  0  0  0
  -10.6275  -25.3373   27.5011 H   0  0  0  0  0  0  0  0  0  0  0  0
  -10.0140  -25.0435   25.1918 H   0  0  0  0  0  0  0  0  0  0  0  0
  -10.2129  -21.4235   21.1227 H   0  0  0  0  0  0  0  0  0  0  0  0
   -8.3208  -21.0076   19.7303 H   0  0  0  0  0  0  0  0  0  0  0  0
   -2.4281  -15.6769   18.9976 H   0  0  0  0  0  0  0  0  0  0  0  0
  1  2  2  0
  2  3  1  0
  3  4  2  0
  4  5  1  0
  5  6  2  0
  6  7  1  0
  7  8  2  0
  8  9  1  0
  9 10  1  0
 10 11  2  0
 11 12  1  0
 12 13  2  0
 13 14  1  0
 14 15  1  0
 15 16  2  0
 16 17  1  0
 17 18  2  0
 18 19  1  0
 19 20  2  0
 20 21  1  0
 21 22  2  0
 13 23  1  0
 23 24  2  0
  9 25  2  0
  4 26  1  0
 26 27  2  0
 27  1  1  0
 25  5  1  0
 24 10  1  0
 22 14  1  0
 22 17  1  0
  1 28  1  0
  2 29  1  0
  3 30  1  0
  7 31  1  0
  8 32  1  0
 11 33  1  0
 12 34  1  0
 15 35  1  0
 18 36  1  0
 19 37  1  0
 20 38  1  0
 21 39  1  0
 23 40  1  0
 24 41  1  0
 27 42  1  0
M  END
>  <Energy>  (603) 
172.96561511542669

>  <compound_id>  (603) 
29347

>  <target_id>  (603) 
1

>  <reference_id>  (603) 
52

>  <inspiration_ids>  (603) 
[52, 60]

>  <energy_score>  (603) 
37.77925553060834

>  <distance_score>  (603) 
13.324370932006932

>  <path>  (603) 
/opt/xchem-fragalysis-2/maxwin/BulkDock/SCRATCH/511017/C29347-P52/C29347-P52.minimised.mol

>  <scratch_subdir>  (603) 
/opt/xchem-fragalysis-2/maxwin/BulkDock/SCRATCH/511017/C29347-P52

>  <fragmenstein_runtime>  (603) 
30.90373468399048

>  <fragmenstein_outcome>  (603) 
too moved

>  <fragmenstein_mode>  (603) 
expansion

>  <fragmenstein_error>  (603) 


$$$$
C29347-P60
     RDKit          3D

 42 46  0  0  0  0  0  0  0  0999 V2000
   -2.3800  -10.0644   19.0656 C   0  0  0  0  0  0  0  0  0  0  0  0
   -2.0863  -10.3739   20.3361 C   0  0  0  0  0  0  0  0  0  0  0  0
   -2.0178  -11.7541   20.7003 C   0  0  0  0  0  0  0  0  0  0  0  0
   -2.2479  -12.9412   19.9902 C   0  0  0  0  0  0  0  0  0  0  0  0
   -2.2289  -14.9182   20.2202 C   0  0  0  0  0  0  0  0  0  0  0  0
   -1.5343  -15.7523   19.4735 N   0  0  0  0  0  0  0  0  0  0  0  0
   -1.6310  -17.1881   19.5517 C   0  0  0  0  0  0  0  0  0  0  0  0
   -2.6472  -17.9958   19.9431 C   0  0  0  0  0  0  0  0  0  0  0  0
   -3.5560  -17.2663   20.5897 C   0  0  0  0  0  0  0  0  0  0  0  0
   -4.4973  -18.0183   21.6163 C   0  0  0  0  0  0  0  0  0  0  0  0
   -4.4665  -19.4344   21.7560 C   0  0  0  0  0  0  0  0  0  0  0  0
   -4.3978  -20.0737   23.0329 C   0  0  0  0  0  0  0  0  0  0  0  0
   -4.4461  -19.3158   24.2061 C   0  0  0  0  0  0  0  0  0  0  0  0
   -4.0511  -19.7853   25.5160 N   0  0  0  0  0  0  0  0  0  0  0  0
   -3.7872  -18.9390   26.5827 C   0  0  0  0  0  0  0  0  0  0  0  0
   -3.2340  -19.5341   27.6069 N   0  0  0  0  0  0  0  0  0  0  0  0
   -3.2179  -20.8506   27.2766 C   0  0  0  0  0  0  0  0  0  0  0  0
   -2.7739  -21.9153   28.0785 C   0  0  0  0  0  0  0  0  0  0  0  0
   -2.7956  -23.1994   27.5537 C   0  0  0  0  0  0  0  0  0  0  0  0
   -3.2692  -23.4023   26.2621 C   0  0  0  0  0  0  0  0  0  0  0  0
   -3.7892  -22.3628   25.4756 C   0  0  0  0  0  0  0  0  0  0  0  0
   -3.7268  -21.0622   25.9895 C   0  0  0  0  0  0  0  0  0  0  0  0
   -4.8070  -17.9736   24.0413 C   0  0  0  0  0  0  0  0  0  0  0  0
   -4.9013  -17.3588   22.7783 C   0  0  0  0  0  0  0  0  0  0  0  0
   -3.3093  -15.7737   20.6689 N   0  0  0  0  0  0  0  0  0  0  0  0
   -2.4177  -12.5044   18.6625 N   0  0  0  0  0  0  0  0  0  0  0  0
   -2.5668  -11.1737   18.3080 C   0  0  0  0  0  0  0  0  0  0  0  0
   -2.4520   -9.0596   18.6839 H   0  0  0  0  0  0  0  0  0  0  0  0
   -1.8121   -9.5996   21.0458 H   0  0  0  0  0  0  0  0  0  0  0  0
   -1.5105  -11.7611   21.6050 H   0  0  0  0  0  0  0  0  0  0  0  0
   -0.7557  -17.7204   19.1712 H   0  0  0  0  0  0  0  0  0  0  0  0
   -2.5825  -19.0663   19.8846 H   0  0  0  0  0  0  0  0  0  0  0  0
   -4.2886  -20.0608   20.8818 H   0  0  0  0  0  0  0  0  0  0  0  0
   -4.1936  -21.1370   23.0322 H   0  0  0  0  0  0  0  0  0  0  0  0
   -3.9575  -17.8733   26.5650 H   0  0  0  0  0  0  0  0  0  0  0  0
   -2.3870  -21.7192   29.0730 H   0  0  0  0  0  0  0  0  0  0  0  0
   -2.4105  -24.0331   28.1343 H   0  0  0  0  0  0  0  0  0  0  0  0
   -3.2219  -24.3988   25.8318 H   0  0  0  0  0  0  0  0  0  0  0  0
   -4.1885  -22.5937   24.4958 H   0  0  0  0  0  0  0  0  0  0  0  0
   -4.7575  -17.2549   24.8493 H   0  0  0  0  0  0  0  0  0  0  0  0
   -4.8495  -16.2794   22.8213 H   0  0  0  0  0  0  0  0  0  0  0  0
   -2.9722  -11.0017   17.3366 H   0  0  0  0  0  0  0  0  0  0  0  0
  1  2  2  0
  2  3  1  0
  3  4  2  0
  4  5  1  0
  5  6  2  0
  6  7  1  0
  7  8  2  0
  8  9  1  0
  9 10  1  0
 10 11  2  0
 11 12  1  0
 12 13  2  0
 13 14  1  0
 14 15  1  0
 15 16  2  0
 16 17  1  0
 17 18  2  0
 18 19  1  0
 19 20  2  0
 20 21  1  0
 21 22  2  0
 13 23  1  0
 23 24  2  0
  9 25  2  0
  4 26  1  0
 26 27  2  0
 27  1  1  0
 25  5  1  0
 24 10  1  0
 22 14  1  0
 22 17  1  0
  1 28  1  0
  2 29  1  0
  3 30  1  0
  7 31  1  0
  8 32  1  0
 11 33  1  0
 12 34  1  0
 15 35  1  0
 18 36  1  0
 19 37  1  0
 20 38  1  0
 21 39  1  0
 23 40  1  0
 24 41  1  0
 27 42  1  0
M  END
>  <Energy>  (604) 
316.93340527947151

>  <compound_id>  (604) 
29347

>  <target_id>  (604) 
1

>  <reference_id>  (604) 
60

>  <inspiration_ids>  (604) 
[52, 60]

>  <energy_score>  (604) 
181.74704569465257

>  <distance_score>  (604) 
12.99338991543737

>  <path>  (604) 
/opt/xchem-fragalysis-2/maxwin/BulkDock/SCRATCH/511017/C29347-P60/C29347-P60.minimised.mol

>  <scratch_subdir>  (604) 
/opt/xchem-fragalysis-2/maxwin/BulkDock/SCRATCH/511017/C29347-P60

>  <fragmenstein_runtime>  (604) 
44.21977472305298

>  <fragmenstein_outcome>  (604) 
too moved

>  <fragmenstein_mode>  (604) 
expansion

>  <fragmenstein_error>  (604) 


$$$$
C29348-P52
     RDKit          3D

 52 55  0  0  0  0  0  0  0  0999 V2000
  -10.4595  -21.5641   21.3534 C   0  0  0  0  0  0  0  0  0  0  0  0
   -9.7012  -21.0236   22.4419 O   0  0  0  0  0  0  0  0  0  0  0  0
  -10.4553  -19.9845   23.0258 C   0  0  0  0  0  0  0  0  0  0  0  0
   -9.8669  -18.1368   23.2755 C   0  0  0  0  0  0  0  0  0  0  0  0
  -11.0533  -16.8862   24.1899 N   0  0  0  0  0  0  0  0  0  0  0  0
  -12.8895  -17.7043   24.0424 C   0  0  0  0  0  0  0  0  0  0  0  0
  -12.4969  -19.7499   24.4032 C   0  0  0  0  0  0  0  0  0  0  0  0
  -12.8727  -21.1387   23.8969 C   0  0  0  0  0  0  0  0  0  0  0  0
  -12.9605  -22.5446   24.5474 C   0  0  0  0  0  0  0  0  0  0  0  0
  -12.3240  -22.8659   25.7253 C   0  0  0  0  0  0  0  0  0  0  0  0
  -12.2082  -24.0244   26.5437 N   0  0  0  0  0  0  0  0  0  0  0  0
  -11.1326  -24.2292   27.4062 C   0  0  0  0  0  0  0  0  0  0  0  0
  -11.3481  -25.1344   28.3232 N   0  0  0  0  0  0  0  0  0  0  0  0
  -12.5826  -25.6137   28.0234 C   0  0  0  0  0  0  0  0  0  0  0  0
  -13.2993  -26.5911   28.7253 C   0  0  0  0  0  0  0  0  0  0  0  0
  -14.5561  -26.9537   28.2540 C   0  0  0  0  0  0  0  0  0  0  0  0
  -15.0771  -26.3553   27.1049 C   0  0  0  0  0  0  0  0  0  0  0  0
  -14.3802  -25.3645   26.3952 C   0  0  0  0  0  0  0  0  0  0  0  0
  -13.1216  -25.0070   26.8764 C   0  0  0  0  0  0  0  0  0  0  0  0
  -11.7534  -21.7766   26.2487 C   0  0  0  0  0  0  0  0  0  0  0  0
  -11.8887  -20.4437   25.6320 C   0  0  0  0  0  0  0  0  0  0  0  0
  -10.8671  -15.2318   23.8251 C   0  0  0  0  0  0  0  0  0  0  0  0
   -9.3884  -14.4209   23.5523 C   0  0  0  0  0  0  0  0  0  0  0  0
   -8.4456  -14.1982   24.5668 C   0  0  0  0  0  0  0  0  0  0  0  0
   -7.2284  -13.5036   24.3089 C   0  0  0  0  0  0  0  0  0  0  0  0
   -6.9557  -12.9991   23.0457 C   0  0  0  0  0  0  0  0  0  0  0  0
   -7.9393  -13.1899   22.0989 C   0  0  0  0  0  0  0  0  0  0  0  0
   -9.1284  -13.8436   22.3290 N   0  0  0  0  0  0  0  0  0  0  0  0
   -9.7786  -22.0074   20.6528 H   0  0  0  0  0  0  0  0  0  0  0  0
  -11.2129  -22.2553   21.7215 H   0  0  0  0  0  0  0  0  0  0  0  0
  -11.0106  -20.8279   20.7799 H   0  0  0  0  0  0  0  0  0  0  0  0
  -10.5697  -20.2848   23.9809 H   0  0  0  0  0  0  0  0  0  0  0  0
  -11.3735  -20.0320   22.4784 H   0  0  0  0  0  0  0  0  0  0  0  0
   -9.1525  -18.5624   23.8320 H   0  0  0  0  0  0  0  0  0  0  0  0
   -9.0648  -17.7916   22.5710 H   0  0  0  0  0  0  0  0  0  0  0  0
  -13.7533  -17.3707   24.6244 H   0  0  0  0  0  0  0  0  0  0  0  0
  -13.1402  -17.1662   23.1380 H   0  0  0  0  0  0  0  0  0  0  0  0
  -12.8793  -21.3439   22.8482 H   0  0  0  0  0  0  0  0  0  0  0  0
  -13.5134  -23.2797   23.9748 H   0  0  0  0  0  0  0  0  0  0  0  0
  -10.2183  -23.6560   27.3237 H   0  0  0  0  0  0  0  0  0  0  0  0
  -12.8694  -27.0554   29.6054 H   0  0  0  0  0  0  0  0  0  0  0  0
  -15.1314  -27.7141   28.7772 H   0  0  0  0  0  0  0  0  0  0  0  0
  -16.0675  -26.6494   26.7587 H   0  0  0  0  0  0  0  0  0  0  0  0
  -14.8254  -24.8806   25.5338 H   0  0  0  0  0  0  0  0  0  0  0  0
  -11.2972  -21.7811   27.2440 H   0  0  0  0  0  0  0  0  0  0  0  0
  -11.6641  -20.0442   26.5822 H   0  0  0  0  0  0  0  0  0  0  0  0
  -11.5168  -15.0273   22.9641 H   0  0  0  0  0  0  0  0  0  0  0  0
  -11.3041  -14.6631   24.6513 H   0  0  0  0  0  0  0  0  0  0  0  0
   -8.6468  -14.5794   25.5629 H   0  0  0  0  0  0  0  0  0  0  0  0
   -6.5125  -13.3694   25.1151 H   0  0  0  0  0  0  0  0  0  0  0  0
   -6.0399  -12.4722   22.8182 H   0  0  0  0  0  0  0  0  0  0  0  0
   -7.8270  -12.8160   21.0850 H   0  0  0  0  0  0  0  0  0  0  0  0
  1  2  1  0
  2  3  1  0
  3  4  1  0
  4  5  1  0
  5  6  1  0
  6  7  1  0
  7  8  2  0
  8  9  1  0
  9 10  2  0
 10 11  1  0
 11 12  1  0
 12 13  2  0
 13 14  1  0
 14 15  2  0
 15 16  1  0
 16 17  2  0
 17 18  1  0
 18 19  2  0
 10 20  1  0
 20 21  2  0
  5 22  1  0
 22 23  1  0
 23 24  2  0
 24 25  1  0
 25 26  2  0
 26 27  1  0
 27 28  2  0
 21  7  1  0
 28 23  1  0
 19 11  1  0
 19 14  1  0
  1 29  1  0
  1 30  1  0
  1 31  1  0
  3 32  1  0
  3 33  1  0
  4 34  1  0
  4 35  1  0
  6 36  1  0
  6 37  1  0
  8 38  1  0
  9 39  1  0
 12 40  1  0
 15 41  1  0
 16 42  1  0
 17 43  1  0
 18 44  1  0
 20 45  1  0
 21 46  1  0
 22 47  1  0
 22 48  1  0
 24 49  1  0
 25 50  1  0
 26 51  1  0
 27 52  1  0
M  END
>  <Energy>  (605) 
664.39574665968917

>  <compound_id>  (605) 
29348

>  <target_id>  (605) 
1

>  <reference_id>  (605) 
52

>  <inspiration_ids>  (605) 
[52, 60]

>  <energy_score>  (605) 
495.4338437930069

>  <distance_score>  (605) 
14.203005559999925

>  <path>  (605) 
/opt/xchem-fragalysis-2/maxwin/BulkDock/SCRATCH/511017/C29348-P52/C29348-P52.minimised.mol

>  <scratch_subdir>  (605) 
/opt/xchem-fragalysis-2/maxwin/BulkDock/SCRATCH/511017/C29348-P52

>  <fragmenstein_runtime>  (605) 
36.233710050582886

>  <fragmenstein_outcome>  (605) 
too moved

>  <fragmenstein_mode>  (605) 
expansion

>  <fragmenstein_error>  (605) 


$$$$
C29348-P60
     RDKit          3D

 52 55  0  0  0  0  0  0  0  0999 V2000
   -1.0030  -23.1095   23.3887 C   0  0  0  0  0  0  0  0  0  0  0  0
   -0.6015  -21.7473   23.3530 O   0  0  0  0  0  0  0  0  0  0  0  0
   -1.7063  -20.8427   23.2421 C   0  0  0  0  0  0  0  0  0  0  0  0
   -2.5428  -20.7276   24.5357 C   0  0  0  0  0  0  0  0  0  0  0  0
   -1.7777  -20.5997   25.7778 N   0  0  0  0  0  0  0  0  0  0  0  0
   -2.6299  -20.9386   27.0068 C   0  0  0  0  0  0  0  0  0  0  0  0
   -3.5313  -22.2179   27.2260 C   0  0  0  0  0  0  0  0  0  0  0  0
   -4.8817  -22.2029   26.8403 C   0  0  0  0  0  0  0  0  0  0  0  0
   -6.0681  -23.0797   27.3074 C   0  0  0  0  0  0  0  0  0  0  0  0
   -6.0058  -24.3101   28.3575 C   0  0  0  0  0  0  0  0  0  0  0  0
   -7.7086  -25.2649   28.7622 N   0  0  0  0  0  0  0  0  0  0  0  0
   -9.1005  -24.8848   28.0455 C   0  0  0  0  0  0  0  0  0  0  0  0
  -10.1814  -25.4652   28.4411 N   0  0  0  0  0  0  0  0  0  0  0  0
   -9.9987  -25.3783   29.7497 C   0  0  0  0  0  0  0  0  0  0  0  0
  -11.0090  -25.0936   30.6811 C   0  0  0  0  0  0  0  0  0  0  0  0
  -10.7356  -25.0452   32.0318 C   0  0  0  0  0  0  0  0  0  0  0  0
   -9.4575  -25.3310   32.4372 C   0  0  0  0  0  0  0  0  0  0  0  0
   -8.4072  -25.5178   31.5185 C   0  0  0  0  0  0  0  0  0  0  0  0
   -8.6417  -25.4448   30.1232 C   0  0  0  0  0  0  0  0  0  0  0  0
   -4.2745  -24.2497   28.5028 C   0  0  0  0  0  0  0  0  0  0  0  0
   -3.2251  -23.3031   28.0259 C   0  0  0  0  0  0  0  0  0  0  0  0
   -1.1934  -19.1438   25.9343 C   0  0  0  0  0  0  0  0  0  0  0  0
   -0.2694  -18.2891   24.9292 C   0  0  0  0  0  0  0  0  0  0  0  0
    0.8860  -18.7784   24.3145 C   0  0  0  0  0  0  0  0  0  0  0  0
    1.7429  -17.9157   23.5836 C   0  0  0  0  0  0  0  0  0  0  0  0
    1.4679  -16.5588   23.4932 C   0  0  0  0  0  0  0  0  0  0  0  0
    0.3299  -16.1233   24.1388 C   0  0  0  0  0  0  0  0  0  0  0  0
   -0.5273  -16.9393   24.8378 N   0  0  0  0  0  0  0  0  0  0  0  0
   -0.1026  -23.7300   23.3820 H   0  0  0  0  0  0  0  0  0  0  0  0
   -1.5611  -23.3303   24.3025 H   0  0  0  0  0  0  0  0  0  0  0  0
   -1.6026  -23.3608   22.5085 H   0  0  0  0  0  0  0  0  0  0  0  0
   -1.3036  -19.8663   22.9646 H   0  0  0  0  0  0  0  0  0  0  0  0
   -2.3428  -21.1552   22.4061 H   0  0  0  0  0  0  0  0  0  0  0  0
   -3.1449  -21.6413   24.5779 H   0  0  0  0  0  0  0  0  0  0  0  0
   -3.2399  -19.8913   24.4655 H   0  0  0  0  0  0  0  0  0  0  0  0
   -1.9320  -20.9394   27.8552 H   0  0  0  0  0  0  0  0  0  0  0  0
   -3.2962  -20.0830   27.1840 H   0  0  0  0  0  0  0  0  0  0  0  0
   -5.0010  -21.3377   26.2057 H   0  0  0  0  0  0  0  0  0  0  0  0
   -7.0501  -22.7461   26.9746 H   0  0  0  0  0  0  0  0  0  0  0  0
   -9.1268  -24.1019   27.2956 H   0  0  0  0  0  0  0  0  0  0  0  0
  -12.0096  -24.8905   30.3169 H   0  0  0  0  0  0  0  0  0  0  0  0
  -11.5326  -24.8531   32.7438 H   0  0  0  0  0  0  0  0  0  0  0  0
   -9.2605  -25.4148   33.4997 H   0  0  0  0  0  0  0  0  0  0  0  0
   -7.4218  -25.6418   31.9278 H   0  0  0  0  0  0  0  0  0  0  0  0
   -3.7346  -25.2043   28.6080 H   0  0  0  0  0  0  0  0  0  0  0  0
   -2.1885  -23.5006   28.2997 H   0  0  0  0  0  0  0  0  0  0  0  0
   -0.6056  -19.1704   26.8614 H   0  0  0  0  0  0  0  0  0  0  0  0
   -2.0581  -18.4933   26.1249 H   0  0  0  0  0  0  0  0  0  0  0  0
    1.1314  -19.8349   24.3990 H   0  0  0  0  0  0  0  0  0  0  0  0
    2.6261  -18.3273   23.1012 H   0  0  0  0  0  0  0  0  0  0  0  0
    2.1083  -15.8774   22.9471 H   0  0  0  0  0  0  0  0  0  0  0  0
    0.0486  -15.0743   24.1274 H   0  0  0  0  0  0  0  0  0  0  0  0
  1  2  1  0
  2  3  1  0
  3  4  1  0
  4  5  1  0
  5  6  1  0
  6  7  1  0
  7  8  2  0
  8  9  1  0
  9 10  2  0
 10 11  1  0
 11 12  1  0
 12 13  2  0
 13 14  1  0
 14 15  2  0
 15 16  1  0
 16 17  2  0
 17 18  1  0
 18 19  2  0
 10 20  1  0
 20 21  2  0
  5 22  1  0
 22 23  1  0
 23 24  2  0
 24 25  1  0
 25 26  2  0
 26 27  1  0
 27 28  2  0
 21  7  1  0
 28 23  1  0
 19 11  1  0
 19 14  1  0
  1 29  1  0
  1 30  1  0
  1 31  1  0
  3 32  1  0
  3 33  1  0
  4 34  1  0
  4 35  1  0
  6 36  1  0
  6 37  1  0
  8 38  1  0
  9 39  1  0
 12 40  1  0
 15 41  1  0
 16 42  1  0
 17 43  1  0
 18 44  1  0
 20 45  1  0
 21 46  1  0
 22 47  1  0
 22 48  1  0
 24 49  1  0
 25 50  1  0
 26 51  1  0
 27 52  1  0
M  END
>  <Energy>  (606) 
468.48996582415049

>  <compound_id>  (606) 
29348

>  <target_id>  (606) 
1

>  <reference_id>  (606) 
60

>  <inspiration_ids>  (606) 
[52, 60]

>  <energy_score>  (606) 
299.5280629574713

>  <distance_score>  (606) 
12.628945864266699

>  <path>  (606) 
/opt/xchem-fragalysis-2/maxwin/BulkDock/SCRATCH/511017/C29348-P60/C29348-P60.minimised.mol

>  <scratch_subdir>  (606) 
/opt/xchem-fragalysis-2/maxwin/BulkDock/SCRATCH/511017/C29348-P60

>  <fragmenstein_runtime>  (606) 
61.617661237716675

>  <fragmenstein_outcome>  (606) 
too moved

>  <fragmenstein_mode>  (606) 
expansion

>  <fragmenstein_error>  (606) 


$$$$
C29349-P52
     RDKit          3D

 56 59  0  0  0  0  0  0  0  0999 V2000
   -8.3718  -10.4797   20.1787 C   0  0  0  0  0  0  0  0  0  0  0  0
   -8.0401  -11.7385   19.5103 N   0  0  0  0  0  0  0  0  0  0  0  0
   -8.0607  -11.5545   18.0605 C   0  0  0  0  0  0  0  0  0  0  0  0
   -6.7379  -12.2422   19.9903 C   0  0  0  0  0  0  0  0  0  0  0  0
   -6.4230  -13.6978   19.5436 C   0  0  0  0  0  0  0  0  0  0  0  0
   -5.2113  -14.2243   20.2231 N   0  0  0  0  0  0  0  0  0  0  0  0
   -5.3717  -15.7105   20.5310 C   0  0  0  0  0  0  0  0  0  0  0  0
   -5.0892  -16.2022   21.9684 C   0  0  0  0  0  0  0  0  0  0  0  0
   -4.6867  -17.5361   22.1965 C   0  0  0  0  0  0  0  0  0  0  0  0
   -4.3678  -18.0321   23.4877 C   0  0  0  0  0  0  0  0  0  0  0  0
   -4.4851  -17.2236   24.6187 C   0  0  0  0  0  0  0  0  0  0  0  0
   -4.0893  -17.6557   25.9463 N   0  0  0  0  0  0  0  0  0  0  0  0
   -3.8862  -16.7771   27.0002 C   0  0  0  0  0  0  0  0  0  0  0  0
   -3.4855  -17.3491   28.1084 N   0  0  0  0  0  0  0  0  0  0  0  0
   -3.3735  -18.6692   27.7923 C   0  0  0  0  0  0  0  0  0  0  0  0
   -2.9112  -19.7110   28.6155 C   0  0  0  0  0  0  0  0  0  0  0  0
   -2.8665  -21.0149   28.1183 C   0  0  0  0  0  0  0  0  0  0  0  0
   -3.2866  -21.2741   26.8216 C   0  0  0  0  0  0  0  0  0  0  0  0
   -3.7144  -20.2399   25.9740 C   0  0  0  0  0  0  0  0  0  0  0  0
   -3.7525  -18.9195   26.4649 C   0  0  0  0  0  0  0  0  0  0  0  0
   -4.9668  -15.9130   24.4012 C   0  0  0  0  0  0  0  0  0  0  0  0
   -5.2718  -15.4190   23.1067 C   0  0  0  0  0  0  0  0  0  0  0  0
   -3.9974  -13.9265   19.3229 C   0  0  0  0  0  0  0  0  0  0  0  0
   -3.7359  -12.4685   18.7302 C   0  0  0  0  0  0  0  0  0  0  0  0
   -4.1877  -12.1080   17.4628 C   0  0  0  0  0  0  0  0  0  0  0  0
   -4.0233  -10.7902   16.9996 C   0  0  0  0  0  0  0  0  0  0  0  0
   -3.3550   -9.8539   17.7663 C   0  0  0  0  0  0  0  0  0  0  0  0
   -2.8800  -10.2828   18.9798 C   0  0  0  0  0  0  0  0  0  0  0  0
   -3.0515  -11.5447   19.4525 N   0  0  0  0  0  0  0  0  0  0  0  0
   -9.3610  -10.1261   19.8671 H   0  0  0  0  0  0  0  0  0  0  0  0
   -7.6397   -9.6926   19.9644 H   0  0  0  0  0  0  0  0  0  0  0  0
   -8.4208  -10.6194   21.2644 H   0  0  0  0  0  0  0  0  0  0  0  0
   -7.9212  -12.5047   17.5362 H   0  0  0  0  0  0  0  0  0  0  0  0
   -9.0354  -11.1720   17.7360 H   0  0  0  0  0  0  0  0  0  0  0  0
   -7.2900  -10.8531   17.7220 H   0  0  0  0  0  0  0  0  0  0  0  0
   -6.7450  -12.2357   21.0887 H   0  0  0  0  0  0  0  0  0  0  0  0
   -5.9471  -11.5480   19.6958 H   0  0  0  0  0  0  0  0  0  0  0  0
   -6.3267  -13.7773   18.4550 H   0  0  0  0  0  0  0  0  0  0  0  0
   -7.2980  -14.3104   19.7760 H   0  0  0  0  0  0  0  0  0  0  0  0
   -6.3942  -16.0435   20.3124 H   0  0  0  0  0  0  0  0  0  0  0  0
   -4.7253  -16.2755   19.8472 H   0  0  0  0  0  0  0  0  0  0  0  0
   -4.5654  -18.2074   21.3457 H   0  0  0  0  0  0  0  0  0  0  0  0
   -3.9764  -19.0401   23.5319 H   0  0  0  0  0  0  0  0  0  0  0  0
   -4.0086  -15.7085   26.9049 H   0  0  0  0  0  0  0  0  0  0  0  0
   -2.6009  -19.4867   29.6308 H   0  0  0  0  0  0  0  0  0  0  0  0
   -2.5063  -21.8214   28.7503 H   0  0  0  0  0  0  0  0  0  0  0  0
   -3.2507  -22.2900   26.4347 H   0  0  0  0  0  0  0  0  0  0  0  0
   -3.9986  -20.4942   24.9610 H   0  0  0  0  0  0  0  0  0  0  0  0
   -5.1220  -15.2116   25.2164 H   0  0  0  0  0  0  0  0  0  0  0  0
   -5.6244  -14.3941   22.9988 H   0  0  0  0  0  0  0  0  0  0  0  0
   -3.1062  -14.1883   19.9032 H   0  0  0  0  0  0  0  0  0  0  0  0
   -4.0227  -14.6069   18.4611 H   0  0  0  0  0  0  0  0  0  0  0  0
   -4.7173  -12.8282   16.8464 H   0  0  0  0  0  0  0  0  0  0  0  0
   -4.4565  -10.5048   16.0459 H   0  0  0  0  0  0  0  0  0  0  0  0
   -3.1982   -8.8353   17.4403 H   0  0  0  0  0  0  0  0  0  0  0  0
   -2.3170   -9.6142   19.6245 H   0  0  0  0  0  0  0  0  0  0  0  0
  1  2  1  0
  2  3  1  0
  2  4  1  0
  4  5  1  0
  5  6  1  0
  6  7  1  0
  7  8  1  0
  8  9  2  0
  9 10  1  0
 10 11  2  0
 11 12  1  0
 12 13  1  0
 13 14  2  0
 14 15  1  0
 15 16  2  0
 16 17  1  0
 17 18  2  0
 18 19  1  0
 19 20  2  0
 11 21  1  0
 21 22  2  0
  6 23  1  0
 23 24  1  0
 24 25  2  0
 25 26  1  0
 26 27  2  0
 27 28  1  0
 28 29  2  0
 22  8  1  0
 29 24  1  0
 20 12  1  0
 20 15  1  0
  1 30  1  0
  1 31  1  0
  1 32  1  0
  3 33  1  0
  3 34  1  0
  3 35  1  0
  4 36  1  0
  4 37  1  0
  5 38  1  0
  5 39  1  0
  7 40  1  0
  7 41  1  0
  9 42  1  0
 10 43  1  0
 13 44  1  0
 16 45  1  0
 17 46  1  0
 18 47  1  0
 19 48  1  0
 21 49  1  0
 22 50  1  0
 23 51  1  0
 23 52  1  0
 25 53  1  0
 26 54  1  0
 27 55  1  0
 28 56  1  0
M  END
>  <Energy>  (607) 
148.16937515694434

>  <compound_id>  (607) 
29349

>  <target_id>  (607) 
1

>  <reference_id>  (607) 
52

>  <inspiration_ids>  (607) 
[52, 60]

>  <energy_score>  (607) 
-17.5465473821871

>  <distance_score>  (607) 
13.317876098550109

>  <path>  (607) 
/opt/xchem-fragalysis-2/maxwin/BulkDock/SCRATCH/511017/C29349-P52/C29349-P52.minimised.mol

>  <scratch_subdir>  (607) 
/opt/xchem-fragalysis-2/maxwin/BulkDock/SCRATCH/511017/C29349-P52

>  <fragmenstein_runtime>  (607) 
53.6085307598114

>  <fragmenstein_outcome>  (607) 
too moved

>  <fragmenstein_mode>  (607) 
expansion

>  <fragmenstein_error>  (607) 


$$$$
C29349-P60
     RDKit          3D

 56 59  0  0  0  0  0  0  0  0999 V2000
   -6.0224  -19.1654   16.6727 C   0  0  0  0  0  0  0  0  0  0  0  0
   -4.5681  -19.0487   16.6062 N   0  0  0  0  0  0  0  0  0  0  0  0
   -4.1668  -17.8603   15.8587 C   0  0  0  0  0  0  0  0  0  0  0  0
   -3.9251  -19.1277   17.9307 C   0  0  0  0  0  0  0  0  0  0  0  0
   -4.3369  -18.0577   18.9811 C   0  0  0  0  0  0  0  0  0  0  0  0
   -3.6553  -18.0814   20.3076 N   0  0  0  0  0  0  0  0  0  0  0  0
   -4.1392  -19.3433   21.0087 C   0  0  0  0  0  0  0  0  0  0  0  0
   -3.9588  -19.5498   22.5091 C   0  0  0  0  0  0  0  0  0  0  0  0
   -4.1258  -18.5459   23.4566 C   0  0  0  0  0  0  0  0  0  0  0  0
   -3.9517  -18.8138   24.8328 C   0  0  0  0  0  0  0  0  0  0  0  0
   -3.6314  -20.1007   25.3114 C   0  0  0  0  0  0  0  0  0  0  0  0
   -3.2814  -20.2999   26.6926 N   0  0  0  0  0  0  0  0  0  0  0  0
   -2.9541  -19.2648   27.5546 C   0  0  0  0  0  0  0  0  0  0  0  0
   -2.5632  -19.6667   28.7403 N   0  0  0  0  0  0  0  0  0  0  0  0
   -2.6239  -21.0270   28.6885 C   0  0  0  0  0  0  0  0  0  0  0  0
   -2.3304  -21.9316   29.7225 C   0  0  0  0  0  0  0  0  0  0  0  0
   -2.4277  -23.2958   29.4723 C   0  0  0  0  0  0  0  0  0  0  0  0
   -2.8571  -23.7432   28.2267 C   0  0  0  0  0  0  0  0  0  0  0  0
   -3.2324  -22.8506   27.2063 C   0  0  0  0  0  0  0  0  0  0  0  0
   -3.0801  -21.4730   27.4388 C   0  0  0  0  0  0  0  0  0  0  0  0
   -3.5630  -21.1256   24.3719 C   0  0  0  0  0  0  0  0  0  0  0  0
   -3.7349  -20.8516   22.9995 C   0  0  0  0  0  0  0  0  0  0  0  0
   -2.1305  -17.9968   20.1802 C   0  0  0  0  0  0  0  0  0  0  0  0
   -1.3193  -17.0501   19.1847 C   0  0  0  0  0  0  0  0  0  0  0  0
   -1.8436  -15.9804   18.4586 C   0  0  0  0  0  0  0  0  0  0  0  0
   -1.0659  -15.3386   17.4699 C   0  0  0  0  0  0  0  0  0  0  0  0
    0.2579  -15.7065   17.2645 C   0  0  0  0  0  0  0  0  0  0  0  0
    0.7556  -16.6972   18.0842 C   0  0  0  0  0  0  0  0  0  0  0  0
    0.0091  -17.3616   19.0180 N   0  0  0  0  0  0  0  0  0  0  0  0
   -6.4396  -19.2740   15.6652 H   0  0  0  0  0  0  0  0  0  0  0  0
   -6.3160  -20.0611   17.2312 H   0  0  0  0  0  0  0  0  0  0  0  0
   -6.4946  -18.2943   17.1393 H   0  0  0  0  0  0  0  0  0  0  0  0
   -4.5454  -17.9128   14.8316 H   0  0  0  0  0  0  0  0  0  0  0  0
   -3.0755  -17.7975   15.7848 H   0  0  0  0  0  0  0  0  0  0  0  0
   -4.5383  -16.9328   16.3066 H   0  0  0  0  0  0  0  0  0  0  0  0
   -4.1353  -20.1263   18.3317 H   0  0  0  0  0  0  0  0  0  0  0  0
   -2.8403  -19.1044   17.7772 H   0  0  0  0  0  0  0  0  0  0  0  0
   -4.2420  -17.0623   18.5515 H   0  0  0  0  0  0  0  0  0  0  0  0
   -5.4171  -18.1380   19.1623 H   0  0  0  0  0  0  0  0  0  0  0  0
   -5.2257  -19.4194   20.8646 H   0  0  0  0  0  0  0  0  0  0  0  0
   -3.6931  -20.2050   20.4964 H   0  0  0  0  0  0  0  0  0  0  0  0
   -4.3619  -17.5341   23.1300 H   0  0  0  0  0  0  0  0  0  0  0  0
   -4.0563  -17.9622   25.4982 H   0  0  0  0  0  0  0  0  0  0  0  0
   -2.9816  -18.2238   27.2659 H   0  0  0  0  0  0  0  0  0  0  0  0
   -1.9924  -21.5584   30.6839 H   0  0  0  0  0  0  0  0  0  0  0  0
   -2.1423  -24.0036   30.2456 H   0  0  0  0  0  0  0  0  0  0  0  0
   -2.8986  -24.8134   28.0340 H   0  0  0  0  0  0  0  0  0  0  0  0
   -3.6062  -23.2490   26.2718 H   0  0  0  0  0  0  0  0  0  0  0  0
   -3.2949  -22.1413   24.6252 H   0  0  0  0  0  0  0  0  0  0  0  0
   -3.6507  -21.6815   22.2972 H   0  0  0  0  0  0  0  0  0  0  0  0
   -1.7643  -19.0070   19.9532 H   0  0  0  0  0  0  0  0  0  0  0  0
   -1.7566  -17.7396   21.1790 H   0  0  0  0  0  0  0  0  0  0  0  0
   -2.8527  -15.6283   18.6313 H   0  0  0  0  0  0  0  0  0  0  0  0
   -1.5018  -14.5333   16.8853 H   0  0  0  0  0  0  0  0  0  0  0  0
    0.8756  -15.2071   16.5281 H   0  0  0  0  0  0  0  0  0  0  0  0
    1.7921  -17.0133   18.0182 H   0  0  0  0  0  0  0  0  0  0  0  0
  1  2  1  0
  2  3  1  0
  2  4  1  0
  4  5  1  0
  5  6  1  0
  6  7  1  0
  7  8  1  0
  8  9  2  0
  9 10  1  0
 10 11  2  0
 11 12  1  0
 12 13  1  0
 13 14  2  0
 14 15  1  0
 15 16  2  0
 16 17  1  0
 17 18  2  0
 18 19  1  0
 19 20  2  0
 11 21  1  0
 21 22  2  0
  6 23  1  0
 23 24  1  0
 24 25  2  0
 25 26  1  0
 26 27  2  0
 27 28  1  0
 28 29  2  0
 22  8  1  0
 29 24  1  0
 20 12  1  0
 20 15  1  0
  1 30  1  0
  1 31  1  0
  1 32  1  0
  3 33  1  0
  3 34  1  0
  3 35  1  0
  4 36  1  0
  4 37  1  0
  5 38  1  0
  5 39  1  0
  7 40  1  0
  7 41  1  0
  9 42  1  0
 10 43  1  0
 13 44  1  0
 16 45  1  0
 17 46  1  0
 18 47  1  0
 19 48  1  0
 21 49  1  0
 22 50  1  0
 23 51  1  0
 23 52  1  0
 25 53  1  0
 26 54  1  0
 27 55  1  0
 28 56  1  0
M  END
>  <Energy>  (608) 
150.43060836517256

>  <compound_id>  (608) 
29349

>  <target_id>  (608) 
1

>  <reference_id>  (608) 
60

>  <inspiration_ids>  (608) 
[52, 60]

>  <energy_score>  (608) 
-15.285314173962092

>  <distance_score>  (608) 
13.308993143529733

>  <path>  (608) 
/opt/xchem-fragalysis-2/maxwin/BulkDock/SCRATCH/511017/C29349-P60/C29349-P60.minimised.mol

>  <scratch_subdir>  (608) 
/opt/xchem-fragalysis-2/maxwin/BulkDock/SCRATCH/511017/C29349-P60

>  <fragmenstein_runtime>  (608) 
49.27101111412048

>  <fragmenstein_outcome>  (608) 
too moved

>  <fragmenstein_mode>  (608) 
expansion

>  <fragmenstein_error>  (608) 


$$$$
C29350-P52
     RDKit          3D

 41 44  0  0  0  0  0  0  0  0999 V2000
   -1.4421   -7.6076   18.5515 O   0  0  0  0  0  0  0  0  0  0  0  0
   -1.0271   -8.3750   19.3469 C   0  0  0  0  0  0  0  0  0  0  0  0
   -1.8410   -9.4637   20.1285 N   0  0  0  0  0  0  0  0  0  0  0  0
   -3.4245   -9.9328   20.0010 C   0  0  0  0  0  0  0  0  0  0  0  0
   -4.3533  -11.0942   20.7998 C   0  0  0  0  0  0  0  0  0  0  0  0
   -4.1392  -12.5028   20.8673 C   0  0  0  0  0  0  0  0  0  0  0  0
   -4.8037  -13.3660   21.8482 C   0  0  0  0  0  0  0  0  0  0  0  0
   -5.7950  -12.8806   22.7154 C   0  0  0  0  0  0  0  0  0  0  0  0
   -6.3802  -13.6103   23.8389 N   0  0  0  0  0  0  0  0  0  0  0  0
   -7.6357  -13.3543   24.3805 C   0  0  0  0  0  0  0  0  0  0  0  0
   -7.7897  -13.8023   25.6063 N   0  0  0  0  0  0  0  0  0  0  0  0
   -6.6114  -14.4298   25.8876 C   0  0  0  0  0  0  0  0  0  0  0  0
   -6.1922  -14.9867   27.1073 C   0  0  0  0  0  0  0  0  0  0  0  0
   -4.9444  -15.6101   27.1707 C   0  0  0  0  0  0  0  0  0  0  0  0
   -4.1651  -15.7486   26.0285 C   0  0  0  0  0  0  0  0  0  0  0  0
   -4.5529  -15.1716   24.8085 C   0  0  0  0  0  0  0  0  0  0  0  0
   -5.7710  -14.4737   24.7612 C   0  0  0  0  0  0  0  0  0  0  0  0
   -6.1502  -11.5338   22.5176 C   0  0  0  0  0  0  0  0  0  0  0  0
   -5.4426  -10.6706   21.6061 C   0  0  0  0  0  0  0  0  0  0  0  0
    0.7702   -8.2358   19.4399 C   0  0  0  0  0  0  0  0  0  0  0  0
    1.4402   -8.3172   17.6384 C   0  0  0  0  0  0  0  0  0  0  0  0
    3.1968   -7.9708   16.9262 C   0  0  0  0  0  0  0  0  0  0  0  0
    4.2447   -6.8078   18.1287 C   0  0  0  0  0  0  0  0  0  0  0  0
    3.7725   -6.7143   20.1953 C   0  0  0  0  0  0  0  0  0  0  0  0
    1.9108   -7.2546   20.5646 N   0  0  0  0  0  0  0  0  0  0  0  0
   -1.2340   -9.9079   20.7951 H   0  0  0  0  0  0  0  0  0  0  0  0
   -3.9680   -8.9850   20.0997 H   0  0  0  0  0  0  0  0  0  0  0  0
   -3.5025  -10.2164   18.9438 H   0  0  0  0  0  0  0  0  0  0  0  0
   -3.3694  -12.9524   20.2374 H   0  0  0  0  0  0  0  0  0  0  0  0
   -4.5069  -14.4130   21.8802 H   0  0  0  0  0  0  0  0  0  0  0  0
   -8.3834  -12.8013   23.8284 H   0  0  0  0  0  0  0  0  0  0  0  0
   -6.8267  -14.9249   27.9828 H   0  0  0  0  0  0  0  0  0  0  0  0
   -4.5901  -16.0009   28.1192 H   0  0  0  0  0  0  0  0  0  0  0  0
   -3.2070  -16.2605   26.0919 H   0  0  0  0  0  0  0  0  0  0  0  0
   -3.8863  -15.2181   23.9544 H   0  0  0  0  0  0  0  0  0  0  0  0
   -6.9149  -11.0617   23.1347 H   0  0  0  0  0  0  0  0  0  0  0  0
   -5.7335   -9.6184   21.5917 H   0  0  0  0  0  0  0  0  0  0  0  0
    0.6627   -8.2718   16.8636 H   0  0  0  0  0  0  0  0  0  0  0  0
    2.5420   -7.2529   16.2151 H   0  0  0  0  0  0  0  0  0  0  0  0
    5.3157   -6.5783   17.8197 H   0  0  0  0  0  0  0  0  0  0  0  0
    4.1243   -5.9757   20.9826 H   0  0  0  0  0  0  0  0  0  0  0  0
  1  2  2  0
  2  3  1  0
  3  4  1  0
  4  5  1  0
  5  6  2  0
  6  7  1  0
  7  8  2  0
  8  9  1  0
  9 10  1  0
 10 11  2  0
 11 12  1  0
 12 13  2  0
 13 14  1  0
 14 15  2  0
 15 16  1  0
 16 17  2  0
  8 18  1  0
 18 19  2  0
  2 20  1  0
 20 21  2  0
 21 22  1  0
 22 23  2  0
 23 24  1  0
 24 25  2  0
 19  5  1  0
 25 20  1  0
 17  9  1  0
 17 12  1  0
  3 26  1  0
  4 27  1  0
  4 28  1  0
  6 29  1  0
  7 30  1  0
 10 31  1  0
 13 32  1  0
 14 33  1  0
 15 34  1  0
 16 35  1  0
 18 36  1  0
 19 37  1  0
 21 38  1  0
 22 39  1  0
 23 40  1  0
 24 41  1  0
M  END
>  <Energy>  (609) 
895.0717931933292

>  <compound_id>  (609) 
29350

>  <target_id>  (609) 
1

>  <reference_id>  (609) 
52

>  <inspiration_ids>  (609) 
[52, 60]

>  <energy_score>  (609) 
783.3878299451503

>  <distance_score>  (609) 
13.098593382981473

>  <path>  (609) 
/opt/xchem-fragalysis-2/maxwin/BulkDock/SCRATCH/511017/C29350-P52/C29350-P52.minimised.mol

>  <scratch_subdir>  (609) 
/opt/xchem-fragalysis-2/maxwin/BulkDock/SCRATCH/511017/C29350-P52

>  <fragmenstein_runtime>  (609) 
43.472065925598145

>  <fragmenstein_outcome>  (609) 
too moved

>  <fragmenstein_mode>  (609) 
expansion

>  <fragmenstein_error>  (609) 


$$$$
C29350-P60
     RDKit          3D

 41 44  0  0  0  0  0  0  0  0999 V2000
   -5.8761  -16.8334   19.8283 O   0  0  0  0  0  0  0  0  0  0  0  0
   -5.7748  -16.7861   21.0268 C   0  0  0  0  0  0  0  0  0  0  0  0
   -6.2982  -17.6873   22.0674 N   0  0  0  0  0  0  0  0  0  0  0  0
   -7.0251  -18.9847   21.9565 C   0  0  0  0  0  0  0  0  0  0  0  0
   -8.1769  -19.6828   22.7246 C   0  0  0  0  0  0  0  0  0  0  0  0
   -8.8813  -21.1307   22.2178 C   0  0  0  0  0  0  0  0  0  0  0  0
  -10.0658  -21.9790   22.3988 C   0  0  0  0  0  0  0  0  0  0  0  0
  -11.0284  -21.7170   23.2580 C   0  0  0  0  0  0  0  0  0  0  0  0
  -11.8260  -22.7330   23.9024 N   0  0  0  0  0  0  0  0  0  0  0  0
  -13.1651  -22.5913   24.0766 C   0  0  0  0  0  0  0  0  0  0  0  0
  -13.4985  -23.0198   25.2632 N   0  0  0  0  0  0  0  0  0  0  0  0
  -12.3214  -23.1077   25.9591 C   0  0  0  0  0  0  0  0  0  0  0  0
  -11.9442  -23.1681   27.3135 C   0  0  0  0  0  0  0  0  0  0  0  0
  -11.1810  -24.2583   27.7045 C   0  0  0  0  0  0  0  0  0  0  0  0
  -10.7839  -25.1468   26.7261 C   0  0  0  0  0  0  0  0  0  0  0  0
  -10.9047  -24.8162   25.3500 C   0  0  0  0  0  0  0  0  0  0  0  0
  -11.5068  -23.6158   24.9986 C   0  0  0  0  0  0  0  0  0  0  0  0
  -10.8461  -20.4105   23.6695 C   0  0  0  0  0  0  0  0  0  0  0  0
   -9.5464  -19.2376   23.4492 C   0  0  0  0  0  0  0  0  0  0  0  0
   -4.8221  -15.5966   21.4405 C   0  0  0  0  0  0  0  0  0  0  0  0
   -4.4697  -14.6315   20.4568 C   0  0  0  0  0  0  0  0  0  0  0  0
   -3.5002  -13.6439   20.7028 C   0  0  0  0  0  0  0  0  0  0  0  0
   -2.8679  -13.6343   21.9319 C   0  0  0  0  0  0  0  0  0  0  0  0
   -3.2330  -14.6215   22.8414 C   0  0  0  0  0  0  0  0  0  0  0  0
   -4.1869  -15.5945   22.6412 N   0  0  0  0  0  0  0  0  0  0  0  0
   -5.9500  -17.3876   22.9709 H   0  0  0  0  0  0  0  0  0  0  0  0
   -6.1909  -19.6892   22.0636 H   0  0  0  0  0  0  0  0  0  0  0  0
   -7.2787  -18.9949   20.8923 H   0  0  0  0  0  0  0  0  0  0  0  0
   -8.8929  -21.2183   21.1059 H   0  0  0  0  0  0  0  0  0  0  0  0
  -10.4724  -22.2891   21.4235 H   0  0  0  0  0  0  0  0  0  0  0  0
  -13.8136  -22.1472   23.3570 H   0  0  0  0  0  0  0  0  0  0  0  0
  -12.3922  -22.5357   28.0653 H   0  0  0  0  0  0  0  0  0  0  0  0
  -11.0139  -24.4634   28.7579 H   0  0  0  0  0  0  0  0  0  0  0  0
  -10.3250  -26.0890   27.0215 H   0  0  0  0  0  0  0  0  0  0  0  0
  -10.5783  -25.5108   24.6091 H   0  0  0  0  0  0  0  0  0  0  0  0
  -11.6870  -20.1500   24.3096 H   0  0  0  0  0  0  0  0  0  0  0  0
   -9.7749  -18.1649   23.3998 H   0  0  0  0  0  0  0  0  0  0  0  0
   -4.9479  -14.6690   19.4798 H   0  0  0  0  0  0  0  0  0  0  0  0
   -3.2542  -12.9147   19.9365 H   0  0  0  0  0  0  0  0  0  0  0  0
   -2.1201  -12.8927   22.1812 H   0  0  0  0  0  0  0  0  0  0  0  0
   -2.7569  -14.6663   23.8188 H   0  0  0  0  0  0  0  0  0  0  0  0
  1  2  2  0
  2  3  1  0
  3  4  1  0
  4  5  1  0
  5  6  2  0
  6  7  1  0
  7  8  2  0
  8  9  1  0
  9 10  1  0
 10 11  2  0
 11 12  1  0
 12 13  2  0
 13 14  1  0
 14 15  2  0
 15 16  1  0
 16 17  2  0
  8 18  1  0
 18 19  2  0
  2 20  1  0
 20 21  2  0
 21 22  1  0
 22 23  2  0
 23 24  1  0
 24 25  2  0
 19  5  1  0
 25 20  1  0
 17  9  1  0
 17 12  1  0
  3 26  1  0
  4 27  1  0
  4 28  1  0
  6 29  1  0
  7 30  1  0
 10 31  1  0
 13 32  1  0
 14 33  1  0
 15 34  1  0
 16 35  1  0
 18 36  1  0
 19 37  1  0
 21 38  1  0
 22 39  1  0
 23 40  1  0
 24 41  1  0
M  END
>  <Energy>  (610) 
373.80658779576629

>  <compound_id>  (610) 
29350

>  <target_id>  (610) 
1

>  <reference_id>  (610) 
60

>  <inspiration_ids>  (610) 
[52, 60]

>  <energy_score>  (610) 
262.1226245475941

>  <distance_score>  (610) 
12.940792977070393

>  <path>  (610) 
/opt/xchem-fragalysis-2/maxwin/BulkDock/SCRATCH/511017/C29350-P60/C29350-P60.minimised.mol

>  <scratch_subdir>  (610) 
/opt/xchem-fragalysis-2/maxwin/BulkDock/SCRATCH/511017/C29350-P60

>  <fragmenstein_runtime>  (610) 
44.79613733291626

>  <fragmenstein_outcome>  (610) 
too moved

>  <fragmenstein_mode>  (610) 
expansion

>  <fragmenstein_error>  (610) 


$$$$
C29351-P52
     RDKit          3D

 46 49  0  0  0  0  0  0  0  0999 V2000
   -3.6646  -14.7163   18.7225 N   0  0  0  0  0  0  0  0  0  0  0  0
   -4.6077  -14.7520   19.8206 C   0  0  0  0  0  0  0  0  0  0  0  0
   -4.7649  -15.5680   20.6909 O   0  0  0  0  0  0  0  0  0  0  0  0
   -5.6778  -13.5323   19.7771 C   0  0  0  0  0  0  0  0  0  0  0  0
   -6.5761  -13.7087   21.0456 N   0  0  0  0  0  0  0  0  0  0  0  0
   -7.7942  -14.5564   20.7839 C   0  0  0  0  0  0  0  0  0  0  0  0
   -8.2424  -15.6352   21.8120 C   0  0  0  0  0  0  0  0  0  0  0  0
   -7.5465  -16.9368   21.7257 C   0  0  0  0  0  0  0  0  0  0  0  0
   -8.0326  -18.1492   22.3710 C   0  0  0  0  0  0  0  0  0  0  0  0
   -9.5964  -18.1966   23.1428 C   0  0  0  0  0  0  0  0  0  0  0  0
  -10.4853  -19.8769   23.2142 N   0  0  0  0  0  0  0  0  0  0  0  0
  -11.3275  -20.4460   22.1699 C   0  0  0  0  0  0  0  0  0  0  0  0
  -12.3221  -21.1269   22.7230 N   0  0  0  0  0  0  0  0  0  0  0  0
  -11.8142  -21.5041   23.8442 C   0  0  0  0  0  0  0  0  0  0  0  0
  -12.3427  -22.3254   24.8547 C   0  0  0  0  0  0  0  0  0  0  0  0
  -11.4822  -23.1888   25.4734 C   0  0  0  0  0  0  0  0  0  0  0  0
  -10.2792  -23.3382   24.8041 C   0  0  0  0  0  0  0  0  0  0  0  0
   -9.7481  -22.4729   23.7111 C   0  0  0  0  0  0  0  0  0  0  0  0
  -10.4817  -21.3315   23.4813 C   0  0  0  0  0  0  0  0  0  0  0  0
  -10.2165  -16.5919   23.3099 C   0  0  0  0  0  0  0  0  0  0  0  0
   -9.4739  -15.4275   22.6541 C   0  0  0  0  0  0  0  0  0  0  0  0
   -4.9337  -12.1487   19.4697 C   0  0  0  0  0  0  0  0  0  0  0  0
   -5.2476  -10.9319   20.0729 C   0  0  0  0  0  0  0  0  0  0  0  0
   -4.5017   -9.7714   19.7636 C   0  0  0  0  0  0  0  0  0  0  0  0
   -3.4686   -9.8207   18.8400 C   0  0  0  0  0  0  0  0  0  0  0  0
   -3.2527  -11.0314   18.2225 C   0  0  0  0  0  0  0  0  0  0  0  0
   -3.9535  -12.1743   18.4980 N   0  0  0  0  0  0  0  0  0  0  0  0
   -3.8991  -13.9107   18.0986 H   0  0  0  0  0  0  0  0  0  0  0  0
   -3.7426  -13.7927   18.2363 H   0  0  0  0  0  0  0  0  0  0  0  0
   -6.3104  -13.6948   18.8945 H   0  0  0  0  0  0  0  0  0  0  0  0
   -5.9959  -14.2822   21.6754 H   0  0  0  0  0  0  0  0  0  0  0  0
   -7.6861  -15.0870   19.8288 H   0  0  0  0  0  0  0  0  0  0  0  0
   -8.6319  -13.8638   20.6387 H   0  0  0  0  0  0  0  0  0  0  0  0
   -6.6397  -17.0192   21.1284 H   0  0  0  0  0  0  0  0  0  0  0  0
   -7.4467  -19.0640   22.2698 H   0  0  0  0  0  0  0  0  0  0  0  0
  -11.2072  -20.2867   21.1039 H   0  0  0  0  0  0  0  0  0  0  0  0
  -13.4121  -22.4115   24.9897 H   0  0  0  0  0  0  0  0  0  0  0  0
  -11.8034  -23.8801   26.2404 H   0  0  0  0  0  0  0  0  0  0  0  0
   -9.6623  -24.1597   25.0835 H   0  0  0  0  0  0  0  0  0  0  0  0
   -8.7252  -22.5865   23.3570 H   0  0  0  0  0  0  0  0  0  0  0  0
  -11.1402  -16.3508   23.8255 H   0  0  0  0  0  0  0  0  0  0  0  0
   -9.9287  -14.4406   22.7016 H   0  0  0  0  0  0  0  0  0  0  0  0
   -6.0485  -10.8838   20.8075 H   0  0  0  0  0  0  0  0  0  0  0  0
   -4.7463   -8.8325   20.2554 H   0  0  0  0  0  0  0  0  0  0  0  0
   -2.8742   -8.9479   18.5957 H   0  0  0  0  0  0  0  0  0  0  0  0
   -2.4975  -11.1366   17.4521 H   0  0  0  0  0  0  0  0  0  0  0  0
  1  2  1  0
  2  3  2  0
  2  4  1  0
  4  5  1  0
  5  6  1  0
  6  7  1  0
  7  8  2  0
  8  9  1  0
  9 10  2  0
 10 11  1  0
 11 12  1  0
 12 13  2  0
 13 14  1  0
 14 15  2  0
 15 16  1  0
 16 17  2  0
 17 18  1  0
 18 19  2  0
 10 20  1  0
 20 21  2  0
  4 22  1  0
 22 23  2  0
 23 24  1  0
 24 25  2  0
 25 26  1  0
 26 27  2  0
 21  7  1  0
 27 22  1  0
 19 11  1  0
 19 14  1  0
  1 28  1  0
  1 29  1  0
  4 30  1  0
  5 31  1  0
  6 32  1  0
  6 33  1  0
  8 34  1  0
  9 35  1  0
 12 36  1  0
 15 37  1  0
 16 38  1  0
 17 39  1  0
 18 40  1  0
 20 41  1  0
 21 42  1  0
 23 43  1  0
 24 44  1  0
 25 45  1  0
 26 46  1  0
M  END
>  <Energy>  (611) 
607.73775630758018

>  <compound_id>  (611) 
29351

>  <target_id>  (611) 
1

>  <reference_id>  (611) 
52

>  <inspiration_ids>  (611) 
[52, 60]

>  <energy_score>  (611) 
458.2199261980194

>  <distance_score>  (611) 
12.95920193680328

>  <path>  (611) 
/opt/xchem-fragalysis-2/maxwin/BulkDock/SCRATCH/511017/C29351-P52/C29351-P52.minimised.mol

>  <scratch_subdir>  (611) 
/opt/xchem-fragalysis-2/maxwin/BulkDock/SCRATCH/511017/C29351-P52

>  <fragmenstein_runtime>  (611) 
41.871293783187866

>  <fragmenstein_outcome>  (611) 
too moved

>  <fragmenstein_mode>  (611) 
expansion

>  <fragmenstein_error>  (611) 


$$$$
C29351-P60
     RDKit          3D

 46 49  0  0  0  0  0  0  0  0999 V2000
   -3.8534  -11.6927   27.5480 N   0  0  0  0  0  0  0  0  0  0  0  0
   -4.3696  -13.0454   27.3233 C   0  0  0  0  0  0  0  0  0  0  0  0
   -4.4646  -13.9797   28.0741 O   0  0  0  0  0  0  0  0  0  0  0  0
   -4.9759  -13.1696   25.8332 C   0  0  0  0  0  0  0  0  0  0  0  0
   -5.7626  -14.5145   25.6828 N   0  0  0  0  0  0  0  0  0  0  0  0
   -7.0436  -14.4676   26.5196 C   0  0  0  0  0  0  0  0  0  0  0  0
   -7.7539  -15.7453   26.9087 C   0  0  0  0  0  0  0  0  0  0  0  0
   -8.9742  -16.1675   26.4793 C   0  0  0  0  0  0  0  0  0  0  0  0
   -9.4992  -17.5454   26.9529 C   0  0  0  0  0  0  0  0  0  0  0  0
   -9.1451  -18.9430   27.8838 C   0  0  0  0  0  0  0  0  0  0  0  0
   -9.6262  -20.8774   27.6280 N   0  0  0  0  0  0  0  0  0  0  0  0
  -11.2034  -21.5325   27.0581 C   0  0  0  0  0  0  0  0  0  0  0  0
  -12.0732  -21.7003   28.0667 N   0  0  0  0  0  0  0  0  0  0  0  0
  -11.2788  -22.0138   29.0857 C   0  0  0  0  0  0  0  0  0  0  0  0
  -11.6815  -22.8689   30.1340 C   0  0  0  0  0  0  0  0  0  0  0  0
  -11.2922  -24.2147   29.9948 C   0  0  0  0  0  0  0  0  0  0  0  0
  -10.5156  -24.6286   28.9061 C   0  0  0  0  0  0  0  0  0  0  0  0
   -9.9424  -23.6714   28.0395 C   0  0  0  0  0  0  0  0  0  0  0  0
  -10.1024  -22.2328   28.3643 C   0  0  0  0  0  0  0  0  0  0  0  0
   -8.0822  -18.1438   28.2595 C   0  0  0  0  0  0  0  0  0  0  0  0
   -7.3503  -16.6605   27.8704 C   0  0  0  0  0  0  0  0  0  0  0  0
   -3.8370  -12.6681   24.8251 C   0  0  0  0  0  0  0  0  0  0  0  0
   -3.0140  -13.4911   24.0679 C   0  0  0  0  0  0  0  0  0  0  0  0
   -1.9400  -12.9314   23.3399 C   0  0  0  0  0  0  0  0  0  0  0  0
   -1.6897  -11.5629   23.3716 C   0  0  0  0  0  0  0  0  0  0  0  0
   -2.5332  -10.7945   24.1404 C   0  0  0  0  0  0  0  0  0  0  0  0
   -3.5728  -11.3033   24.8736 N   0  0  0  0  0  0  0  0  0  0  0  0
   -4.0355  -11.1119   26.6972 H   0  0  0  0  0  0  0  0  0  0  0  0
   -3.8165  -11.1844   26.6332 H   0  0  0  0  0  0  0  0  0  0  0  0
   -5.7491  -12.3913   25.7516 H   0  0  0  0  0  0  0  0  0  0  0  0
   -6.0589  -14.5908   24.7100 H   0  0  0  0  0  0  0  0  0  0  0  0
   -6.8577  -13.9322   27.4574 H   0  0  0  0  0  0  0  0  0  0  0  0
   -7.7514  -13.8374   25.9649 H   0  0  0  0  0  0  0  0  0  0  0  0
   -9.6175  -15.5549   25.8541 H   0  0  0  0  0  0  0  0  0  0  0  0
  -10.5412  -17.3145   27.0628 H   0  0  0  0  0  0  0  0  0  0  0  0
  -11.4683  -21.3042   26.0365 H   0  0  0  0  0  0  0  0  0  0  0  0
  -12.5314  -22.6401   30.7689 H   0  0  0  0  0  0  0  0  0  0  0  0
  -11.7005  -24.9507   30.6804 H   0  0  0  0  0  0  0  0  0  0  0  0
  -10.3360  -25.6881   28.7441 H   0  0  0  0  0  0  0  0  0  0  0  0
   -9.3727  -23.9881   27.1864 H   0  0  0  0  0  0  0  0  0  0  0  0
   -7.7988  -18.3167   29.2711 H   0  0  0  0  0  0  0  0  0  0  0  0
   -6.3967  -16.4681   28.3809 H   0  0  0  0  0  0  0  0  0  0  0  0
   -3.1762  -14.5665   24.0571 H   0  0  0  0  0  0  0  0  0  0  0  0
   -1.3079  -13.5975   22.7599 H   0  0  0  0  0  0  0  0  0  0  0  0
   -0.8782  -11.1062   22.8212 H   0  0  0  0  0  0  0  0  0  0  0  0
   -2.4051   -9.7172   24.2042 H   0  0  0  0  0  0  0  0  0  0  0  0
  1  2  1  0
  2  3  2  0
  2  4  1  0
  4  5  1  0
  5  6  1  0
  6  7  1  0
  7  8  2  0
  8  9  1  0
  9 10  2  0
 10 11  1  0
 11 12  1  0
 12 13  2  0
 13 14  1  0
 14 15  2  0
 15 16  1  0
 16 17  2  0
 17 18  1  0
 18 19  2  0
 10 20  1  0
 20 21  2  0
  4 22  1  0
 22 23  2  0
 23 24  1  0
 24 25  2  0
 25 26  1  0
 26 27  2  0
 21  7  1  0
 27 22  1  0
 19 11  1  0
 19 14  1  0
  1 28  1  0
  1 29  1  0
  4 30  1  0
  5 31  1  0
  6 32  1  0
  6 33  1  0
  8 34  1  0
  9 35  1  0
 12 36  1  0
 15 37  1  0
 16 38  1  0
 17 39  1  0
 18 40  1  0
 20 41  1  0
 21 42  1  0
 23 43  1  0
 24 44  1  0
 25 45  1  0
 26 46  1  0
M  END
>  <Energy>  (612) 
800.94658344580307

>  <compound_id>  (612) 
29351

>  <target_id>  (612) 
1

>  <reference_id>  (612) 
60

>  <inspiration_ids>  (612) 
[52, 60]

>  <energy_score>  (612) 
651.4287533362437

>  <distance_score>  (612) 
11.985901560951149

>  <path>  (612) 
/opt/xchem-fragalysis-2/maxwin/BulkDock/SCRATCH/511017/C29351-P60/C29351-P60.minimised.mol

>  <scratch_subdir>  (612) 
/opt/xchem-fragalysis-2/maxwin/BulkDock/SCRATCH/511017/C29351-P60

>  <fragmenstein_runtime>  (612) 
65.21550703048706

>  <fragmenstein_outcome>  (612) 
too moved

>  <fragmenstein_mode>  (612) 
expansion

>  <fragmenstein_error>  (612) 


$$$$
C13883-P106
     RDKit          3D

 29 31  0  0  0  0  0  0  0  0999 V2000
    3.2371   -8.0550   18.8187 O   0  0  0  0  0  0  0  0  0  0  0  0
    2.2851   -8.0515   18.0637 C   0  0  0  0  0  0  0  0  0  0  0  0
    2.2197   -7.8151   16.5150 N   0  0  0  0  0  0  0  0  0  0  0  0
    3.3566   -7.3865   15.4787 C   0  0  0  0  0  0  0  0  0  0  0  0
    4.4572   -7.7490   13.9343 C   0  0  0  0  0  0  0  0  0  0  0  0
    5.9415   -7.4966   14.1657 N   0  0  0  0  0  0  0  0  0  0  0  0
    6.1826   -6.7154   15.6953 C   0  0  0  0  0  0  0  0  0  0  0  0
    7.0446   -6.2289   16.5074 N   0  0  0  0  0  0  0  0  0  0  0  0
    6.5123   -6.2924   17.8103 C   0  0  0  0  0  0  0  0  0  0  0  0
    5.2375   -6.0477   17.7435 C   0  0  0  0  0  0  0  0  0  0  0  0
    5.0266   -6.2651   16.4112 N   0  0  0  0  0  0  0  0  0  0  0  0
    3.7648   -6.1514   15.4911 C   0  0  0  0  0  0  0  0  0  0  0  0
    0.7606   -8.1991   18.9117 C   0  0  0  0  0  0  0  0  0  0  0  0
   -0.6716   -8.1826   18.3388 C   0  0  0  0  0  0  0  0  0  0  0  0
   -1.6137   -8.8449   19.3191 C   0  0  0  0  0  0  0  0  0  0  0  0
   -0.8483   -8.6675   20.6192 C   0  0  0  0  0  0  0  0  0  0  0  0
    0.5696   -8.4915   20.3308 O   0  0  0  0  0  0  0  0  0  0  0  0
    1.2670   -7.9666   16.1909 H   0  0  0  0  0  0  0  0  0  0  0  0
    4.0702   -8.1009   12.9957 H   0  0  0  0  0  0  0  0  0  0  0  0
    6.9804   -6.4366   18.7668 H   0  0  0  0  0  0  0  0  0  0  0  0
    4.5731   -5.8761   18.5741 H   0  0  0  0  0  0  0  0  0  0  0  0
    3.1974   -5.2390   15.5785 H   0  0  0  0  0  0  0  0  0  0  0  0
    0.8319   -7.1186   19.1112 H   0  0  0  0  0  0  0  0  0  0  0  0
   -0.7096   -8.5330   17.3340 H   0  0  0  0  0  0  0  0  0  0  0  0
   -1.0680   -7.1686   18.3241 H   0  0  0  0  0  0  0  0  0  0  0  0
   -2.5929   -8.3553   19.3625 H   0  0  0  0  0  0  0  0  0  0  0  0
   -1.8186   -9.8913   19.0750 H   0  0  0  0  0  0  0  0  0  0  0  0
   -0.9770   -9.5087   21.3072 H   0  0  0  0  0  0  0  0  0  0  0  0
   -1.1769   -7.7587   21.1353 H   0  0  0  0  0  0  0  0  0  0  0  0
  1  2  2  0
  2  3  1  0
  3  4  1  0
  4  5  1  0
  5  6  2  0
  6  7  1  0
  7  8  2  0
  8  9  1  0
  9 10  2  0
 10 11  1  0
 11 12  1  0
  2 13  1  0
 13 14  1  0
 14 15  1  0
 15 16  1  0
 16 17  1  0
 12  4  2  0
 17 13  1  0
 11  7  1  0
  3 18  1  0
  5 19  1  0
  9 20  1  0
 10 21  1  0
 12 22  1  0
 13 23  1  0
 14 24  1  0
 14 25  1  0
 15 26  1  0
 15 27  1  0
 16 28  1  0
 16 29  1  0
M  END
>  <Energy>  (613) 
421.61936552986674

>  <compound_id>  (613) 
13883

>  <target_id>  (613) 
1

>  <reference_id>  (613) 
106

>  <inspiration_ids>  (613) 
[106, 28]

>  <energy_score>  (613) 
340.8302694500683

>  <distance_score>  (613) 
14.580852600452774

>  <path>  (613) 
/opt/xchem-fragalysis-2/maxwin/BulkDock/SCRATCH/511017/C13883-P106/C13883-P106.minimised.mol

>  <scratch_subdir>  (613) 
/opt/xchem-fragalysis-2/maxwin/BulkDock/SCRATCH/511017/C13883-P106

>  <fragmenstein_runtime>  (613) 
8.487922191619873

>  <fragmenstein_outcome>  (613) 
too moved

>  <fragmenstein_mode>  (613) 
expansion

>  <fragmenstein_error>  (613) 


$$$$
C13883-P28
     RDKit          3D

 29 31  0  0  0  0  0  0  0  0999 V2000
    6.0035  -10.8577   14.3026 O   0  0  0  0  0  0  0  0  0  0  0  0
    6.0592  -10.0379   13.4943 C   0  0  0  0  0  0  0  0  0  0  0  0
    6.8551   -8.1727   13.5765 N   0  0  0  0  0  0  0  0  0  0  0  0
    7.8427   -7.2386   14.9262 C   0  0  0  0  0  0  0  0  0  0  0  0
    7.9770   -5.8065   15.1720 C   0  0  0  0  0  0  0  0  0  0  0  0
    8.8939   -4.5126   14.7816 N   0  0  0  0  0  0  0  0  0  0  0  0
   10.3979   -4.4359   14.8844 C   0  0  0  0  0  0  0  0  0  0  0  0
   11.3066   -3.5020   14.9777 N   0  0  0  0  0  0  0  0  0  0  0  0
   12.3785   -4.1512   15.5364 C   0  0  0  0  0  0  0  0  0  0  0  0
   12.1230   -5.4855   15.7801 C   0  0  0  0  0  0  0  0  0  0  0  0
   10.8546   -5.7759   15.3067 N   0  0  0  0  0  0  0  0  0  0  0  0
    9.5391   -7.1532   15.2189 C   0  0  0  0  0  0  0  0  0  0  0  0
    4.9645  -10.6806   11.7771 C   0  0  0  0  0  0  0  0  0  0  0  0
    3.4333  -11.1855   10.7328 C   0  0  0  0  0  0  0  0  0  0  0  0
    3.6543  -11.6832    9.2719 C   0  0  0  0  0  0  0  0  0  0  0  0
    4.8031  -10.8781    8.8508 C   0  0  0  0  0  0  0  0  0  0  0  0
    4.8576   -9.9273   10.0597 O   0  0  0  0  0  0  0  0  0  0  0  0
    6.8366   -7.6989   12.6910 H   0  0  0  0  0  0  0  0  0  0  0  0
    7.1630   -5.5078   15.8935 H   0  0  0  0  0  0  0  0  0  0  0  0
   13.2963   -3.6209   15.7544 H   0  0  0  0  0  0  0  0  0  0  0  0
   12.7110   -6.2588   16.1950 H   0  0  0  0  0  0  0  0  0  0  0  0
    9.9935   -8.1445   15.3411 H   0  0  0  0  0  0  0  0  0  0  0  0
    4.0653  -10.0893   12.5330 H   0  0  0  0  0  0  0  0  0  0  0  0
    2.7619  -11.9516   10.9808 H   0  0  0  0  0  0  0  0  0  0  0  0
    2.7187  -10.3829   10.8443 H   0  0  0  0  0  0  0  0  0  0  0  0
    2.8168  -11.4771    8.6072 H   0  0  0  0  0  0  0  0  0  0  0  0
    3.8568  -12.7555    9.1875 H   0  0  0  0  0  0  0  0  0  0  0  0
    5.7339  -11.4140    8.6259 H   0  0  0  0  0  0  0  0  0  0  0  0
    4.6715  -10.3391    7.9016 H   0  0  0  0  0  0  0  0  0  0  0  0
  1  2  2  0
  2  3  1  0
  3  4  1  0
  4  5  1  0
  5  6  2  0
  6  7  1  0
  7  8  2  0
  8  9  1  0
  9 10  2  0
 10 11  1  0
 11 12  1  0
  2 13  1  0
 13 14  1  0
 14 15  1  0
 15 16  1  0
 16 17  1  0
 12  4  2  0
 17 13  1  0
 11  7  1  0
  3 18  1  0
  5 19  1  0
  9 20  1  0
 10 21  1  0
 12 22  1  0
 13 23  1  0
 14 24  1  0
 14 25  1  0
 15 26  1  0
 15 27  1  0
 16 28  1  0
 16 29  1  0
M  END
>  <Energy>  (614) 
930.63191898023365

>  <compound_id>  (614) 
13883

>  <target_id>  (614) 
1

>  <reference_id>  (614) 
28

>  <inspiration_ids>  (614) 
[106, 28]

>  <energy_score>  (614) 
849.8428229004383

>  <distance_score>  (614) 
12.98708056923442

>  <path>  (614) 
/opt/xchem-fragalysis-2/maxwin/BulkDock/SCRATCH/511017/C13883-P28/C13883-P28.minimised.mol

>  <scratch_subdir>  (614) 
/opt/xchem-fragalysis-2/maxwin/BulkDock/SCRATCH/511017/C13883-P28

>  <fragmenstein_runtime>  (614) 
7.345770597457886

>  <fragmenstein_outcome>  (614) 
too moved

>  <fragmenstein_mode>  (614) 
expansion

>  <fragmenstein_error>  (614) 


$$$$
C13884-P106
     RDKit          3D

 43 46  0  0  0  0  0  0  0  0999 V2000
    2.2644  -16.0583    9.3308 O   0  0  0  0  0  0  0  0  0  0  0  0
    1.2669  -15.3862    9.4083 C   0  0  0  0  0  0  0  0  0  0  0  0
    1.1019  -13.9164    9.5410 N   0  0  0  0  0  0  0  0  0  0  0  0
    2.0834  -12.8550    9.7160 C   0  0  0  0  0  0  0  0  0  0  0  0
    1.4186  -11.5401    9.6694 C   0  0  0  0  0  0  0  0  0  0  0  0
    1.7202  -10.5037   10.3475 N   0  0  0  0  0  0  0  0  0  0  0  0
    2.7432  -10.6279   11.1995 C   0  0  0  0  0  0  0  0  0  0  0  0
    2.6604  -10.8559   12.4641 N   0  0  0  0  0  0  0  0  0  0  0  0
    3.9405  -10.5349   13.4050 C   0  0  0  0  0  0  0  0  0  0  0  0
    4.9023  -11.0987   12.6364 C   0  0  0  0  0  0  0  0  0  0  0  0
    3.8132  -11.4194   11.1106 N   0  0  0  0  0  0  0  0  0  0  0  0
    3.3860  -12.7136   10.1958 C   0  0  0  0  0  0  0  0  0  0  0  0
   -0.2273  -16.2318    9.4985 C   0  0  0  0  0  0  0  0  0  0  0  0
   -0.7772  -16.1629   10.9888 C   0  0  0  0  0  0  0  0  0  0  0  0
   -0.1209  -17.0636   12.0431 C   0  0  0  0  0  0  0  0  0  0  0  0
   -1.2210  -17.9780   12.5343 C   0  0  0  0  0  0  0  0  0  0  0  0
   -2.4381  -17.1169   12.3389 C   0  0  0  0  0  0  0  0  0  0  0  0
   -2.2016  -16.4203   11.1007 O   0  0  0  0  0  0  0  0  0  0  0  0
   -1.3025  -15.6869    8.5124 C   0  0  0  0  0  0  0  0  0  0  0  0
   -2.5075  -16.6190    8.2308 C   0  0  0  0  0  0  0  0  0  0  0  0
   -2.1124  -17.9318    7.8567 O   0  0  0  0  0  0  0  0  0  0  0  0
   -1.3156  -18.5358    8.8698 C   0  0  0  0  0  0  0  0  0  0  0  0
   -0.0226  -17.7306    9.0664 C   0  0  0  0  0  0  0  0  0  0  0  0
    0.1160  -13.6873    9.4944 H   0  0  0  0  0  0  0  0  0  0  0  0
    0.5613  -11.4718    8.9782 H   0  0  0  0  0  0  0  0  0  0  0  0
    3.8608  -10.7070   14.4590 H   0  0  0  0  0  0  0  0  0  0  0  0
    5.5180  -11.8629   13.1389 H   0  0  0  0  0  0  0  0  0  0  0  0
    4.0810  -13.5311   10.2890 H   0  0  0  0  0  0  0  0  0  0  0  0
   -0.6490  -15.1241   11.3203 H   0  0  0  0  0  0  0  0  0  0  0  0
    0.7735  -17.5956   11.7150 H   0  0  0  0  0  0  0  0  0  0  0  0
    0.1993  -16.4319   12.8794 H   0  0  0  0  0  0  0  0  0  0  0  0
   -1.0829  -18.2952   13.5712 H   0  0  0  0  0  0  0  0  0  0  0  0
   -1.2715  -18.8733   11.9076 H   0  0  0  0  0  0  0  0  0  0  0  0
   -3.3603  -17.6895   12.2800 H   0  0  0  0  0  0  0  0  0  0  0  0
   -2.5384  -16.3710   13.1353 H   0  0  0  0  0  0  0  0  0  0  0  0
   -1.6790  -14.7149    8.8517 H   0  0  0  0  0  0  0  0  0  0  0  0
   -0.7988  -15.5002    7.5541 H   0  0  0  0  0  0  0  0  0  0  0  0
   -3.0727  -16.2029    7.3890 H   0  0  0  0  0  0  0  0  0  0  0  0
   -3.2135  -16.6726    9.0621 H   0  0  0  0  0  0  0  0  0  0  0  0
   -1.0633  -19.5451    8.5285 H   0  0  0  0  0  0  0  0  0  0  0  0
   -1.9016  -18.6421    9.7842 H   0  0  0  0  0  0  0  0  0  0  0  0
    0.6427  -18.2622    9.7516 H   0  0  0  0  0  0  0  0  0  0  0  0
    0.5060  -17.7169    8.1024 H   0  0  0  0  0  0  0  0  0  0  0  0
  1  2  2  0
  2  3  1  0
  3  4  1  0
  4  5  1  0
  5  6  2  0
  6  7  1  0
  7  8  2  0
  8  9  1  0
  9 10  2  0
 10 11  1  0
 11 12  1  0
  2 13  1  0
 13 14  1  0
 14 15  1  0
 15 16  1  0
 16 17  1  0
 17 18  1  0
 13 19  1  0
 19 20  1  0
 20 21  1  0
 21 22  1  0
 22 23  1  0
 12  4  2  0
 23 13  1  0
 11  7  1  0
 18 14  1  0
  3 24  1  0
  5 25  1  0
  9 26  1  0
 10 27  1  0
 12 28  1  0
 14 29  1  0
 15 30  1  0
 15 31  1  0
 16 32  1  0
 16 33  1  0
 17 34  1  0
 17 35  1  0
 19 36  1  0
 19 37  1  0
 20 38  1  0
 20 39  1  0
 22 40  1  0
 22 41  1  0
 23 42  1  0
 23 43  1  0
M  END
>  <Energy>  (615) 
272.57348986264026

>  <compound_id>  (615) 
13884

>  <target_id>  (615) 
1

>  <reference_id>  (615) 
106

>  <inspiration_ids>  (615) 
[106, 28]

>  <energy_score>  (615) 
182.00725021596315

>  <distance_score>  (615) 
15.072899199161602

>  <path>  (615) 
/opt/xchem-fragalysis-2/maxwin/BulkDock/SCRATCH/511017/C13884-P106/C13884-P106.minimised.mol

>  <scratch_subdir>  (615) 
/opt/xchem-fragalysis-2/maxwin/BulkDock/SCRATCH/511017/C13884-P106

>  <fragmenstein_runtime>  (615) 
22.760311603546143

>  <fragmenstein_outcome>  (615) 
too moved

>  <fragmenstein_mode>  (615) 
expansion

>  <fragmenstein_error>  (615) 


$$$$
C13884-P28
     RDKit          3D

 43 46  0  0  0  0  0  0  0  0999 V2000
   -3.2544  -13.5890   19.8515 O   0  0  0  0  0  0  0  0  0  0  0  0
   -3.7777  -13.0340   18.9178 C   0  0  0  0  0  0  0  0  0  0  0  0
   -3.7072  -11.6284   18.4768 N   0  0  0  0  0  0  0  0  0  0  0  0
   -2.9378  -10.5419   18.9585 C   0  0  0  0  0  0  0  0  0  0  0  0
   -2.9432   -9.2114   18.2122 C   0  0  0  0  0  0  0  0  0  0  0  0
   -2.3299   -8.0973   18.4934 N   0  0  0  0  0  0  0  0  0  0  0  0
   -1.5322   -8.1115   19.5941 C   0  0  0  0  0  0  0  0  0  0  0  0
   -0.7892   -7.1435   20.0981 N   0  0  0  0  0  0  0  0  0  0  0  0
   -0.1587   -7.6821   21.1861 C   0  0  0  0  0  0  0  0  0  0  0  0
   -0.5921   -8.9682   21.4127 C   0  0  0  0  0  0  0  0  0  0  0  0
   -1.4591   -9.2616   20.3770 N   0  0  0  0  0  0  0  0  0  0  0  0
   -2.1534  -10.4569   20.0565 C   0  0  0  0  0  0  0  0  0  0  0  0
   -4.8565  -14.0174   18.0452 C   0  0  0  0  0  0  0  0  0  0  0  0
   -4.9420  -13.7780   16.4948 C   0  0  0  0  0  0  0  0  0  0  0  0
   -6.0591  -14.5034   15.7256 C   0  0  0  0  0  0  0  0  0  0  0  0
   -5.4614  -14.7491   14.3639 C   0  0  0  0  0  0  0  0  0  0  0  0
   -4.0153  -15.0016   14.7083 C   0  0  0  0  0  0  0  0  0  0  0  0
   -3.7191  -14.1581   15.8387 O   0  0  0  0  0  0  0  0  0  0  0  0
   -6.2622  -13.8100   18.6887 C   0  0  0  0  0  0  0  0  0  0  0  0
   -7.2780  -14.9685   18.6014 C   0  0  0  0  0  0  0  0  0  0  0  0
   -6.7216  -16.2717   18.5610 O   0  0  0  0  0  0  0  0  0  0  0  0
   -5.4193  -16.3340   19.1289 C   0  0  0  0  0  0  0  0  0  0  0  0
   -4.4390  -15.5307   18.2758 C   0  0  0  0  0  0  0  0  0  0  0  0
   -4.2061  -11.5306   17.6054 H   0  0  0  0  0  0  0  0  0  0  0  0
   -3.5927   -9.2106   17.3206 H   0  0  0  0  0  0  0  0  0  0  0  0
    0.5516   -7.1072   21.7649 H   0  0  0  0  0  0  0  0  0  0  0  0
   -0.3424   -9.7016   22.1633 H   0  0  0  0  0  0  0  0  0  0  0  0
   -2.0017  -11.2902   20.7305 H   0  0  0  0  0  0  0  0  0  0  0  0
   -5.0629  -12.7079   16.2986 H   0  0  0  0  0  0  0  0  0  0  0  0
   -6.2989  -15.4618   16.1763 H   0  0  0  0  0  0  0  0  0  0  0  0
   -6.9806  -13.9154   15.6800 H   0  0  0  0  0  0  0  0  0  0  0  0
   -5.9257  -15.5729   13.8163 H   0  0  0  0  0  0  0  0  0  0  0  0
   -5.5475  -13.8400   13.7572 H   0  0  0  0  0  0  0  0  0  0  0  0
   -3.8379  -16.0394   15.0035 H   0  0  0  0  0  0  0  0  0  0  0  0
   -3.3380  -14.7548   13.8860 H   0  0  0  0  0  0  0  0  0  0  0  0
   -6.7243  -12.8888   18.3115 H   0  0  0  0  0  0  0  0  0  0  0  0
   -6.1084  -13.6160   19.7603 H   0  0  0  0  0  0  0  0  0  0  0  0
   -7.9505  -14.9169   19.4659 H   0  0  0  0  0  0  0  0  0  0  0  0
   -7.9192  -14.8522   17.7224 H   0  0  0  0  0  0  0  0  0  0  0  0
   -5.1127  -17.3849   19.1536 H   0  0  0  0  0  0  0  0  0  0  0  0
   -5.4422  -15.9791   20.1660 H   0  0  0  0  0  0  0  0  0  0  0  0
   -4.3557  -16.0488   17.3169 H   0  0  0  0  0  0  0  0  0  0  0  0
   -3.4385  -15.6087   18.7138 H   0  0  0  0  0  0  0  0  0  0  0  0
  1  2  2  0
  2  3  1  0
  3  4  1  0
  4  5  1  0
  5  6  2  0
  6  7  1  0
  7  8  2  0
  8  9  1  0
  9 10  2  0
 10 11  1  0
 11 12  1  0
  2 13  1  0
 13 14  1  0
 14 15  1  0
 15 16  1  0
 16 17  1  0
 17 18  1  0
 13 19  1  0
 19 20  1  0
 20 21  1  0
 21 22  1  0
 22 23  1  0
 12  4  2  0
 23 13  1  0
 11  7  1  0
 18 14  1  0
  3 24  1  0
  5 25  1  0
  9 26  1  0
 10 27  1  0
 12 28  1  0
 14 29  1  0
 15 30  1  0
 15 31  1  0
 16 32  1  0
 16 33  1  0
 17 34  1  0
 17 35  1  0
 19 36  1  0
 19 37  1  0
 20 38  1  0
 20 39  1  0
 22 40  1  0
 22 41  1  0
 23 42  1  0
 23 43  1  0
M  END
>  <Energy>  (616) 
68.058283495343176

>  <compound_id>  (616) 
13884

>  <target_id>  (616) 
1

>  <reference_id>  (616) 
28

>  <inspiration_ids>  (616) 
[106, 28]

>  <energy_score>  (616) 
-22.507956151331

>  <distance_score>  (616) 
15.926822240586699

>  <path>  (616) 
/opt/xchem-fragalysis-2/maxwin/BulkDock/SCRATCH/511017/C13884-P28/C13884-P28.minimised.mol

>  <scratch_subdir>  (616) 
/opt/xchem-fragalysis-2/maxwin/BulkDock/SCRATCH/511017/C13884-P28

>  <fragmenstein_runtime>  (616) 
13.510205507278442

>  <fragmenstein_outcome>  (616) 
too moved

>  <fragmenstein_mode>  (616) 
expansion

>  <fragmenstein_error>  (616) 


$$$$
C13886-P106
     RDKit          3D

 36 38  0  0  0  0  0  0  0  0999 V2000
    1.8458  -12.8632   15.3083 C   0  0  0  0  0  0  0  0  0  0  0  0
    1.2919  -12.2947   14.1129 N   0  0  0  0  0  0  0  0  0  0  0  0
    2.8457  -10.9237   13.7366 C   0  0  0  0  0  0  0  0  0  0  0  0
    4.5928  -10.1863   13.7301 C   0  0  0  0  0  0  0  0  0  0  0  0
    5.8059  -10.7898   13.7448 C   0  0  0  0  0  0  0  0  0  0  0  0
    7.1888   -9.6601   13.7677 N   0  0  0  0  0  0  0  0  0  0  0  0
    8.4621  -10.0778   14.2722 C   0  0  0  0  0  0  0  0  0  0  0  0
    9.2493   -9.3908   15.0088 C   0  0  0  0  0  0  0  0  0  0  0  0
    8.6755   -8.0993   14.9723 C   0  0  0  0  0  0  0  0  0  0  0  0
    7.4716   -7.6745   14.8084 N   0  0  0  0  0  0  0  0  0  0  0  0
    6.6235   -8.3510   13.9522 C   0  0  0  0  0  0  0  0  0  0  0  0
    5.1374   -8.5102   13.8054 N   0  0  0  0  0  0  0  0  0  0  0  0
   -0.2411  -13.6029   13.9217 C   0  0  0  0  0  0  0  0  0  0  0  0
   -1.4848  -14.3039   15.5879 C   0  0  0  0  0  0  0  0  0  0  0  0
   -2.6817  -15.0227   15.1722 C   0  0  0  0  0  0  0  0  0  0  0  0
   -3.5683  -16.3233   15.2822 C   0  0  0  0  0  0  0  0  0  0  0  0
   -3.7152  -16.0607   16.7348 C   0  0  0  0  0  0  0  0  0  0  0  0
   -2.2185  -15.1180   16.9730 O   0  0  0  0  0  0  0  0  0  0  0  0
    1.4911  -13.7047   16.0621 H   0  0  0  0  0  0  0  0  0  0  0  0
    1.4235  -12.3491   15.9953 H   0  0  0  0  0  0  0  0  0  0  0  0
    2.7631  -12.2747   15.5934 H   0  0  0  0  0  0  0  0  0  0  0  0
    3.6693  -11.3045   14.5770 H   0  0  0  0  0  0  0  0  0  0  0  0
    2.9190  -10.1516   14.5183 H   0  0  0  0  0  0  0  0  0  0  0  0
    6.0567  -11.8298   13.5820 H   0  0  0  0  0  0  0  0  0  0  0  0
    8.7213  -11.0805   14.3306 H   0  0  0  0  0  0  0  0  0  0  0  0
   10.0916   -9.7924   15.5388 H   0  0  0  0  0  0  0  0  0  0  0  0
    9.4558   -7.4352   15.2361 H   0  0  0  0  0  0  0  0  0  0  0  0
    0.1276  -14.3663   13.2300 H   0  0  0  0  0  0  0  0  0  0  0  0
   -0.7142  -12.8058   13.3975 H   0  0  0  0  0  0  0  0  0  0  0  0
   -1.6082  -13.5183   16.3487 H   0  0  0  0  0  0  0  0  0  0  0  0
   -2.8101  -14.5427   14.2538 H   0  0  0  0  0  0  0  0  0  0  0  0
   -3.2892  -14.3271   15.7956 H   0  0  0  0  0  0  0  0  0  0  0  0
   -3.1164  -17.2263   14.8957 H   0  0  0  0  0  0  0  0  0  0  0  0
   -4.5032  -16.4260   14.7366 H   0  0  0  0  0  0  0  0  0  0  0  0
   -4.5243  -15.5196   17.1245 H   0  0  0  0  0  0  0  0  0  0  0  0
   -3.8023  -16.9189   17.4327 H   0  0  0  0  0  0  0  0  0  0  0  0
  1  2  1  0
  2  3  1  0
  3  4  1  0
  4  5  2  0
  5  6  1  0
  6  7  1  0
  7  8  2  0
  8  9  1  0
  9 10  2  0
 10 11  1  0
 11 12  2  0
  2 13  1  0
 13 14  1  0
 14 15  1  0
 15 16  1  0
 16 17  1  0
 17 18  1  0
 12  4  1  0
 18 14  1  0
 11  6  1  0
  1 19  1  0
  1 20  1  0
  1 21  1  0
  3 22  1  0
  3 23  1  0
  5 24  1  0
  7 25  1  0
  8 26  1  0
  9 27  1  0
 13 28  1  0
 13 29  1  0
 14 30  1  0
 15 31  1  0
 15 32  1  0
 16 33  1  0
 16 34  1  0
 17 35  1  0
 17 36  1  0
M  END
>  <Energy>  (617) 
1110.306637129074

>  <compound_id>  (617) 
13886

>  <target_id>  (617) 
1

>  <reference_id>  (617) 
106

>  <inspiration_ids>  (617) 
[106, 28]

>  <energy_score>  (617) 
998.3168459176262

>  <distance_score>  (617) 
10.932346985501045

>  <path>  (617) 
/opt/xchem-fragalysis-2/maxwin/BulkDock/SCRATCH/511017/C13886-P106/C13886-P106.minimised.mol

>  <scratch_subdir>  (617) 
/opt/xchem-fragalysis-2/maxwin/BulkDock/SCRATCH/511017/C13886-P106

>  <fragmenstein_runtime>  (617) 
10.488232851028442

>  <fragmenstein_outcome>  (617) 
too moved

>  <fragmenstein_mode>  (617) 
expansion

>  <fragmenstein_error>  (617) 


$$$$
C13886-P28
     RDKit          3D

 36 38  0  0  0  0  0  0  0  0999 V2000
    1.6587  -12.4140   14.3198 C   0  0  0  0  0  0  0  0  0  0  0  0
    1.7397  -11.2872   13.4898 N   0  0  0  0  0  0  0  0  0  0  0  0
    3.3915  -10.1007   14.1038 C   0  0  0  0  0  0  0  0  0  0  0  0
    4.1939   -8.1262   14.0108 C   0  0  0  0  0  0  0  0  0  0  0  0
    5.7051   -7.3569   14.0097 C   0  0  0  0  0  0  0  0  0  0  0  0
    5.9262   -6.1513   15.3504 N   0  0  0  0  0  0  0  0  0  0  0  0
    7.2651   -5.5786   15.8870 C   0  0  0  0  0  0  0  0  0  0  0  0
    7.9140   -3.9874   15.7459 C   0  0  0  0  0  0  0  0  0  0  0  0
    6.1174   -3.3498   15.1215 C   0  0  0  0  0  0  0  0  0  0  0  0
    4.8674   -3.9958   15.1857 N   0  0  0  0  0  0  0  0  0  0  0  0
    4.6949   -5.4955   15.2864 C   0  0  0  0  0  0  0  0  0  0  0  0
    3.7733   -6.5595   14.8871 N   0  0  0  0  0  0  0  0  0  0  0  0
   -0.1040  -12.2469   13.2984 C   0  0  0  0  0  0  0  0  0  0  0  0
   -1.3610  -13.8968   13.9399 C   0  0  0  0  0  0  0  0  0  0  0  0
   -2.7740  -15.0833   14.8945 C   0  0  0  0  0  0  0  0  0  0  0  0
   -4.0104  -16.2674   13.9518 C   0  0  0  0  0  0  0  0  0  0  0  0
   -4.2283  -15.2480   12.8384 C   0  0  0  0  0  0  0  0  0  0  0  0
   -3.2957  -13.9331   13.5160 O   0  0  0  0  0  0  0  0  0  0  0  0
    2.4906  -12.8633   14.7083 H   0  0  0  0  0  0  0  0  0  0  0  0
    1.6266  -12.4330   15.4107 H   0  0  0  0  0  0  0  0  0  0  0  0
    1.4122  -13.1566   13.5386 H   0  0  0  0  0  0  0  0  0  0  0  0
    4.2378  -10.3495   13.4719 H   0  0  0  0  0  0  0  0  0  0  0  0
    3.8038  -10.5888   15.0162 H   0  0  0  0  0  0  0  0  0  0  0  0
    6.7045   -7.7770   13.9700 H   0  0  0  0  0  0  0  0  0  0  0  0
    7.8790   -6.4322   15.5792 H   0  0  0  0  0  0  0  0  0  0  0  0
    8.8046   -3.6020   15.2539 H   0  0  0  0  0  0  0  0  0  0  0  0
    6.2143   -2.3014   14.7565 H   0  0  0  0  0  0  0  0  0  0  0  0
    0.1516  -12.6996   12.3120 H   0  0  0  0  0  0  0  0  0  0  0  0
   -0.7152  -11.4187   12.9286 H   0  0  0  0  0  0  0  0  0  0  0  0
   -1.1572  -13.9707   15.0485 H   0  0  0  0  0  0  0  0  0  0  0  0
   -3.1879  -14.6881   15.8909 H   0  0  0  0  0  0  0  0  0  0  0  0
   -2.4687  -16.1249   14.9241 H   0  0  0  0  0  0  0  0  0  0  0  0
   -3.6379  -17.2723   13.9382 H   0  0  0  0  0  0  0  0  0  0  0  0
   -4.9332  -16.4471   14.4837 H   0  0  0  0  0  0  0  0  0  0  0  0
   -5.2653  -14.9057   12.7854 H   0  0  0  0  0  0  0  0  0  0  0  0
   -3.8000  -15.3396   11.8675 H   0  0  0  0  0  0  0  0  0  0  0  0
  1  2  1  0
  2  3  1  0
  3  4  1  0
  4  5  2  0
  5  6  1  0
  6  7  1  0
  7  8  2  0
  8  9  1  0
  9 10  2  0
 10 11  1  0
 11 12  2  0
  2 13  1  0
 13 14  1  0
 14 15  1  0
 15 16  1  0
 16 17  1  0
 17 18  1  0
 12  4  1  0
 18 14  1  0
 11  6  1  0
  1 19  1  0
  1 20  1  0
  1 21  1  0
  3 22  1  0
  3 23  1  0
  5 24  1  0
  7 25  1  0
  8 26  1  0
  9 27  1  0
 13 28  1  0
 13 29  1  0
 14 30  1  0
 15 31  1  0
 15 32  1  0
 16 33  1  0
 16 34  1  0
 17 35  1  0
 17 36  1  0
M  END
>  <Energy>  (618) 
1564.1092263658791

>  <compound_id>  (618) 
13886

>  <target_id>  (618) 
1

>  <reference_id>  (618) 
28

>  <inspiration_ids>  (618) 
[106, 28]

>  <energy_score>  (618) 
1452.1194351544314

>  <distance_score>  (618) 
9.787126293645194

>  <path>  (618) 
/opt/xchem-fragalysis-2/maxwin/BulkDock/SCRATCH/511017/C13886-P28/C13886-P28.minimised.mol

>  <scratch_subdir>  (618) 
/opt/xchem-fragalysis-2/maxwin/BulkDock/SCRATCH/511017/C13886-P28

>  <fragmenstein_runtime>  (618) 
9.744227409362793

>  <fragmenstein_outcome>  (618) 
too moved

>  <fragmenstein_mode>  (618) 
expansion

>  <fragmenstein_error>  (618) 


$$$$
C13887-P106
     RDKit          3D

 45 48  0  0  0  0  0  0  0  0999 V2000
    0.0240  -19.1155    8.9122 C   0  0  0  0  0  0  0  0  0  0  0  0
    0.3688  -18.7585    7.6272 C   0  0  0  0  0  0  0  0  0  0  0  0
    0.9067  -17.5655    7.3196 N   0  0  0  0  0  0  0  0  0  0  0  0
    1.0523  -16.6874    8.3437 C   0  0  0  0  0  0  0  0  0  0  0  0
    0.6110  -16.8597    9.6633 C   0  0  0  0  0  0  0  0  0  0  0  0
    0.9840  -15.8534   10.7841 C   0  0  0  0  0  0  0  0  0  0  0  0
    0.3875  -14.4856   11.6050 N   0  0  0  0  0  0  0  0  0  0  0  0
    0.6919  -12.5767   11.5413 C   0  0  0  0  0  0  0  0  0  0  0  0
    2.0745  -11.1751   11.9519 C   0  0  0  0  0  0  0  0  0  0  0  0
    3.3816  -10.9071   11.4841 C   0  0  0  0  0  0  0  0  0  0  0  0
    4.6008  -10.8221   12.9470 N   0  0  0  0  0  0  0  0  0  0  0  0
    5.9046  -10.8276   13.5760 C   0  0  0  0  0  0  0  0  0  0  0  0
    7.0019   -9.5510   13.7308 C   0  0  0  0  0  0  0  0  0  0  0  0
    5.8046   -8.2427   13.7979 C   0  0  0  0  0  0  0  0  0  0  0  0
    4.4655   -8.5485   13.6731 N   0  0  0  0  0  0  0  0  0  0  0  0
    3.9854  -10.0128   13.6973 C   0  0  0  0  0  0  0  0  0  0  0  0
    2.8660  -10.8443   13.5488 N   0  0  0  0  0  0  0  0  0  0  0  0
   -1.0151  -14.9220   11.7502 C   0  0  0  0  0  0  0  0  0  0  0  0
   -1.8435  -16.1907   11.4248 C   0  0  0  0  0  0  0  0  0  0  0  0
   -3.3038  -16.0718   11.8945 C   0  0  0  0  0  0  0  0  0  0  0  0
   -3.4325  -17.1581   12.9334 C   0  0  0  0  0  0  0  0  0  0  0  0
   -2.4138  -18.1617   12.4479 C   0  0  0  0  0  0  0  0  0  0  0  0
   -1.3215  -17.3144   12.1124 O   0  0  0  0  0  0  0  0  0  0  0  0
    0.1973  -18.1736    9.9285 C   0  0  0  0  0  0  0  0  0  0  0  0
   -0.3372  -20.1129    9.1391 H   0  0  0  0  0  0  0  0  0  0  0  0
    0.2548  -19.4520    6.8002 H   0  0  0  0  0  0  0  0  0  0  0  0
    1.5647  -15.7807    8.0446 H   0  0  0  0  0  0  0  0  0  0  0  0
    1.0496  -16.5437   11.6324 H   0  0  0  0  0  0  0  0  0  0  0  0
    1.9543  -15.6665   10.3371 H   0  0  0  0  0  0  0  0  0  0  0  0
    1.5646  -12.8756   10.9773 H   0  0  0  0  0  0  0  0  0  0  0  0
    0.3445  -12.5383   12.5789 H   0  0  0  0  0  0  0  0  0  0  0  0
    3.7928  -10.9424   10.5068 H   0  0  0  0  0  0  0  0  0  0  0  0
    6.1359  -11.8912   13.5607 H   0  0  0  0  0  0  0  0  0  0  0  0
    8.0420   -9.4662   14.0388 H   0  0  0  0  0  0  0  0  0  0  0  0
    6.0776   -7.3031   13.3864 H   0  0  0  0  0  0  0  0  0  0  0  0
   -1.1265  -14.8466   12.8188 H   0  0  0  0  0  0  0  0  0  0  0  0
   -1.4825  -14.2323   11.0918 H   0  0  0  0  0  0  0  0  0  0  0  0
   -1.8541  -16.3818   10.3483 H   0  0  0  0  0  0  0  0  0  0  0  0
   -3.9707  -16.2359   11.0448 H   0  0  0  0  0  0  0  0  0  0  0  0
   -3.5701  -15.0975   12.3075 H   0  0  0  0  0  0  0  0  0  0  0  0
   -4.4495  -17.5270   13.0511 H   0  0  0  0  0  0  0  0  0  0  0  0
   -3.1177  -16.7496   13.9022 H   0  0  0  0  0  0  0  0  0  0  0  0
   -2.7269  -18.7051   11.5525 H   0  0  0  0  0  0  0  0  0  0  0  0
   -2.0275  -18.8770   13.1677 H   0  0  0  0  0  0  0  0  0  0  0  0
    0.0589  -18.5225   10.9484 H   0  0  0  0  0  0  0  0  0  0  0  0
  1  2  2  0
  2  3  1  0
  3  4  2  0
  4  5  1  0
  5  6  1  0
  6  7  1  0
  7  8  1  0
  8  9  1  0
  9 10  2  0
 10 11  1  0
 11 12  1  0
 12 13  2  0
 13 14  1  0
 14 15  2  0
 15 16  1  0
 16 17  2  0
  7 18  1  0
 18 19  1  0
 19 20  1  0
 20 21  1  0
 21 22  1  0
 22 23  1  0
  5 24  2  0
 24  1  1  0
 17  9  1  0
 23 19  1  0
 16 11  1  0
  1 25  1  0
  2 26  1  0
  4 27  1  0
  6 28  1  0
  6 29  1  0
  8 30  1  0
  8 31  1  0
 10 32  1  0
 12 33  1  0
 13 34  1  0
 14 35  1  0
 18 36  1  0
 18 37  1  0
 19 38  1  0
 20 39  1  0
 20 40  1  0
 21 41  1  0
 21 42  1  0
 22 43  1  0
 22 44  1  0
 24 45  1  0
M  END
>  <Energy>  (619) 
762.891583972239

>  <compound_id>  (619) 
13887

>  <target_id>  (619) 
1

>  <reference_id>  (619) 
106

>  <inspiration_ids>  (619) 
[106, 28]

>  <energy_score>  (619) 
625.2911880691676

>  <distance_score>  (619) 
12.985221636719315

>  <path>  (619) 
/opt/xchem-fragalysis-2/maxwin/BulkDock/SCRATCH/511017/C13887-P106/C13887-P106.minimised.mol

>  <scratch_subdir>  (619) 
/opt/xchem-fragalysis-2/maxwin/BulkDock/SCRATCH/511017/C13887-P106

>  <fragmenstein_runtime>  (619) 
9.895194053649902

>  <fragmenstein_outcome>  (619) 
too moved

>  <fragmenstein_mode>  (619) 
expansion

>  <fragmenstein_error>  (619) 


$$$$
C13887-P28
     RDKit          3D

 45 48  0  0  0  0  0  0  0  0999 V2000
   -6.5096  -23.7329   11.9574 C   0  0  0  0  0  0  0  0  0  0  0  0
   -5.3580  -23.6411   11.2024 C   0  0  0  0  0  0  0  0  0  0  0  0
   -4.8169  -22.4526   10.9433 N   0  0  0  0  0  0  0  0  0  0  0  0
   -5.4543  -21.3563   11.4739 C   0  0  0  0  0  0  0  0  0  0  0  0
   -6.7443  -21.2879   12.0700 C   0  0  0  0  0  0  0  0  0  0  0  0
   -7.6161  -20.0669   11.7472 C   0  0  0  0  0  0  0  0  0  0  0  0
   -9.0078  -19.3431   12.2044 N   0  0  0  0  0  0  0  0  0  0  0  0
   -8.5799  -17.5984   12.8300 C   0  0  0  0  0  0  0  0  0  0  0  0
   -7.0200  -16.6716   12.5361 C   0  0  0  0  0  0  0  0  0  0  0  0
   -5.9920  -16.1603   13.3639 C   0  0  0  0  0  0  0  0  0  0  0  0
   -4.9312  -15.7788   12.5376 N   0  0  0  0  0  0  0  0  0  0  0  0
   -3.5624  -15.6173   12.7507 C   0  0  0  0  0  0  0  0  0  0  0  0
   -2.7601  -15.5080   11.6701 C   0  0  0  0  0  0  0  0  0  0  0  0
   -3.4269  -15.5431   10.3591 C   0  0  0  0  0  0  0  0  0  0  0  0
   -4.6993  -15.5168   10.1619 N   0  0  0  0  0  0  0  0  0  0  0  0
   -5.4641  -15.6989   11.2718 C   0  0  0  0  0  0  0  0  0  0  0  0
   -6.7036  -16.1138   11.3017 N   0  0  0  0  0  0  0  0  0  0  0  0
  -10.2409  -20.4184   13.0423 C   0  0  0  0  0  0  0  0  0  0  0  0
  -10.5274  -22.0128   13.0277 C   0  0  0  0  0  0  0  0  0  0  0  0
  -10.4903  -23.0156   11.8934 C   0  0  0  0  0  0  0  0  0  0  0  0
  -10.0909  -24.3460   12.4927 C   0  0  0  0  0  0  0  0  0  0  0  0
  -10.2805  -24.1076   13.9653 C   0  0  0  0  0  0  0  0  0  0  0  0
   -9.9638  -22.7234   14.1572 O   0  0  0  0  0  0  0  0  0  0  0  0
   -7.1879  -22.5353   12.4223 C   0  0  0  0  0  0  0  0  0  0  0  0
   -6.9260  -24.7197   12.1134 H   0  0  0  0  0  0  0  0  0  0  0  0
   -4.8451  -24.5076   10.8060 H   0  0  0  0  0  0  0  0  0  0  0  0
   -4.8331  -20.5044   11.3328 H   0  0  0  0  0  0  0  0  0  0  0  0
   -7.8056  -20.1664   10.6784 H   0  0  0  0  0  0  0  0  0  0  0  0
   -6.8511  -19.3017   11.8946 H   0  0  0  0  0  0  0  0  0  0  0  0
   -9.5598  -17.1032   12.8898 H   0  0  0  0  0  0  0  0  0  0  0  0
   -8.3687  -17.3781   13.8858 H   0  0  0  0  0  0  0  0  0  0  0  0
   -5.8464  -16.0995   14.4238 H   0  0  0  0  0  0  0  0  0  0  0  0
   -3.2230  -15.6361   13.7773 H   0  0  0  0  0  0  0  0  0  0  0  0
   -1.6980  -15.3256   11.5957 H   0  0  0  0  0  0  0  0  0  0  0  0
   -2.7734  -15.5684    9.4860 H   0  0  0  0  0  0  0  0  0  0  0  0
  -11.1227  -19.8345   13.2238 H   0  0  0  0  0  0  0  0  0  0  0  0
  -10.1954  -20.3506   14.1530 H   0  0  0  0  0  0  0  0  0  0  0  0
  -11.5936  -22.0183   13.2469 H   0  0  0  0  0  0  0  0  0  0  0  0
  -11.4851  -23.2244   11.5049 H   0  0  0  0  0  0  0  0  0  0  0  0
   -9.8986  -22.6510   11.0790 H   0  0  0  0  0  0  0  0  0  0  0  0
  -10.7015  -25.1798   12.1310 H   0  0  0  0  0  0  0  0  0  0  0  0
   -9.0614  -24.5963   12.2573 H   0  0  0  0  0  0  0  0  0  0  0  0
   -9.6570  -24.7415   14.5949 H   0  0  0  0  0  0  0  0  0  0  0  0
  -11.3246  -24.2815   14.2414 H   0  0  0  0  0  0  0  0  0  0  0  0
   -8.1265  -22.5971   12.9284 H   0  0  0  0  0  0  0  0  0  0  0  0
  1  2  2  0
  2  3  1  0
  3  4  2  0
  4  5  1  0
  5  6  1  0
  6  7  1  0
  7  8  1  0
  8  9  1  0
  9 10  2  0
 10 11  1  0
 11 12  1  0
 12 13  2  0
 13 14  1  0
 14 15  2  0
 15 16  1  0
 16 17  2  0
  7 18  1  0
 18 19  1  0
 19 20  1  0
 20 21  1  0
 21 22  1  0
 22 23  1  0
  5 24  2  0
 24  1  1  0
 17  9  1  0
 23 19  1  0
 16 11  1  0
  1 25  1  0
  2 26  1  0
  4 27  1  0
  6 28  1  0
  6 29  1  0
  8 30  1  0
  8 31  1  0
 10 32  1  0
 12 33  1  0
 13 34  1  0
 14 35  1  0
 18 36  1  0
 18 37  1  0
 19 38  1  0
 20 39  1  0
 20 40  1  0
 21 41  1  0
 21 42  1  0
 22 43  1  0
 22 44  1  0
 24 45  1  0
M  END
>  <Energy>  (620) 
355.19578480836384

>  <compound_id>  (620) 
13887

>  <target_id>  (620) 
1

>  <reference_id>  (620) 
28

>  <inspiration_ids>  (620) 
[106, 28]

>  <energy_score>  (620) 
217.59538890529456

>  <distance_score>  (620) 
17.581047726434882

>  <path>  (620) 
/opt/xchem-fragalysis-2/maxwin/BulkDock/SCRATCH/511017/C13887-P28/C13887-P28.minimised.mol

>  <scratch_subdir>  (620) 
/opt/xchem-fragalysis-2/maxwin/BulkDock/SCRATCH/511017/C13887-P28

>  <fragmenstein_runtime>  (620) 
14.7720365524292

>  <fragmenstein_outcome>  (620) 
too moved

>  <fragmenstein_mode>  (620) 
expansion

>  <fragmenstein_error>  (620) 


$$$$
C13889-P106
     RDKit          3D

 36 38  0  0  0  0  0  0  0  0999 V2000
    5.2601   -7.6484   12.7358 C   0  0  0  0  0  0  0  0  0  0  0  0
    6.5836   -8.3064   12.8508 C   0  0  0  0  0  0  0  0  0  0  0  0
    5.7205   -9.7427   12.8142 C   0  0  0  0  0  0  0  0  0  0  0  0
    4.1176   -9.6851   11.9724 C   0  0  0  0  0  0  0  0  0  0  0  0
    4.0298   -9.4669   10.4521 C   0  0  0  0  0  0  0  0  0  0  0  0
    2.9020  -10.3582   10.0416 C   0  0  0  0  0  0  0  0  0  0  0  0
    2.0214  -10.3060   11.2708 C   0  0  0  0  0  0  0  0  0  0  0  0
    2.9602  -10.4095   12.3463 O   0  0  0  0  0  0  0  0  0  0  0  0
    7.6250   -7.9504   14.0172 N   0  0  0  0  0  0  0  0  0  0  0  0
    8.5633   -6.6461   14.7322 C   0  0  0  0  0  0  0  0  0  0  0  0
    9.6464   -7.4729   15.2333 C   0  0  0  0  0  0  0  0  0  0  0  0
   11.2349   -6.5183   15.8703 C   0  0  0  0  0  0  0  0  0  0  0  0
   11.5525   -5.2534   16.1849 N   0  0  0  0  0  0  0  0  0  0  0  0
   10.7199   -4.3230   15.6321 C   0  0  0  0  0  0  0  0  0  0  0  0
   10.8583   -3.0262   15.4859 N   0  0  0  0  0  0  0  0  0  0  0  0
   11.2347   -3.0270   14.2106 C   0  0  0  0  0  0  0  0  0  0  0  0
   10.9186   -4.2496   13.6459 C   0  0  0  0  0  0  0  0  0  0  0  0
    9.6110   -4.9399   14.5333 N   0  0  0  0  0  0  0  0  0  0  0  0
    4.7346   -6.7800   12.2859 H   0  0  0  0  0  0  0  0  0  0  0  0
    5.1144   -7.9644   11.7022 H   0  0  0  0  0  0  0  0  0  0  0  0
    4.6159   -7.9361   13.5821 H   0  0  0  0  0  0  0  0  0  0  0  0
    7.1730   -8.2886   11.9253 H   0  0  0  0  0  0  0  0  0  0  0  0
    5.5085  -10.1517   13.7954 H   0  0  0  0  0  0  0  0  0  0  0  0
    6.4332  -10.3942   12.3439 H   0  0  0  0  0  0  0  0  0  0  0  0
    3.6345   -8.7846   12.3487 H   0  0  0  0  0  0  0  0  0  0  0  0
    3.7206   -8.4304   10.2470 H   0  0  0  0  0  0  0  0  0  0  0  0
    4.9410   -9.5834    9.8737 H   0  0  0  0  0  0  0  0  0  0  0  0
    3.2819  -11.3699    9.8706 H   0  0  0  0  0  0  0  0  0  0  0  0
    2.4204   -9.9855    9.1328 H   0  0  0  0  0  0  0  0  0  0  0  0
    1.2780  -11.0917   11.3871 H   0  0  0  0  0  0  0  0  0  0  0  0
    1.5016   -9.3419   11.3321 H   0  0  0  0  0  0  0  0  0  0  0  0
    8.0619   -8.8212   14.3150 H   0  0  0  0  0  0  0  0  0  0  0  0
    9.6016   -8.5776   15.2718 H   0  0  0  0  0  0  0  0  0  0  0  0
   12.0801   -7.1952   16.0663 H   0  0  0  0  0  0  0  0  0  0  0  0
   11.7875   -2.2119   13.7641 H   0  0  0  0  0  0  0  0  0  0  0  0
   11.2015   -4.7085   12.7133 H   0  0  0  0  0  0  0  0  0  0  0  0
  1  2  1  0
  2  3  1  0
  3  4  1  0
  4  5  1  0
  5  6  1  0
  6  7  1  0
  7  8  1  0
  2  9  1  0
  9 10  1  0
 10 11  2  0
 11 12  1  0
 12 13  2  0
 13 14  1  0
 14 15  2  0
 15 16  1  0
 16 17  2  0
 17 18  1  0
  8  4  1  0
 18 10  1  0
 18 14  1  0
  1 19  1  0
  1 20  1  0
  1 21  1  0
  2 22  1  0
  3 23  1  0
  3 24  1  0
  4 25  1  0
  5 26  1  0
  5 27  1  0
  6 28  1  0
  6 29  1  0
  7 30  1  0
  7 31  1  0
  9 32  1  0
 11 33  1  0
 12 34  1  0
 16 35  1  0
 17 36  1  0
M  END
>  <Energy>  (621) 
630.73906421798245

>  <compound_id>  (621) 
13889

>  <target_id>  (621) 
1

>  <reference_id>  (621) 
106

>  <inspiration_ids>  (621) 
[106, 28]

>  <energy_score>  (621) 
526.7485728781737

>  <distance_score>  (621) 
12.60918928821806

>  <path>  (621) 
/opt/xchem-fragalysis-2/maxwin/BulkDock/SCRATCH/511017/C13889-P106/C13889-P106.minimised.mol

>  <scratch_subdir>  (621) 
/opt/xchem-fragalysis-2/maxwin/BulkDock/SCRATCH/511017/C13889-P106

>  <fragmenstein_runtime>  (621) 
10.205235958099365

>  <fragmenstein_outcome>  (621) 
too moved

>  <fragmenstein_mode>  (621) 
expansion

>  <fragmenstein_error>  (621) 


$$$$
C13889-P28
     RDKit          3D

 36 38  0  0  0  0  0  0  0  0999 V2000
    2.0942  -15.2103   17.8121 C   0  0  0  0  0  0  0  0  0  0  0  0
    1.3588  -13.9550   17.1061 C   0  0  0  0  0  0  0  0  0  0  0  0
   -0.6551  -14.0209   16.5661 C   0  0  0  0  0  0  0  0  0  0  0  0
   -1.7801  -14.5685   14.8300 C   0  0  0  0  0  0  0  0  0  0  0  0
   -3.0687  -15.9931   15.1922 C   0  0  0  0  0  0  0  0  0  0  0  0
   -4.1663  -16.4451   14.4246 C   0  0  0  0  0  0  0  0  0  0  0  0
   -4.2328  -15.0720   13.0725 C   0  0  0  0  0  0  0  0  0  0  0  0
   -3.3548  -14.0196   13.8616 O   0  0  0  0  0  0  0  0  0  0  0  0
    2.7671  -12.5379   17.5914 N   0  0  0  0  0  0  0  0  0  0  0  0
    3.2689  -10.8613   16.9811 C   0  0  0  0  0  0  0  0  0  0  0  0
    2.9895   -9.6704   17.7242 C   0  0  0  0  0  0  0  0  0  0  0  0
    3.5030   -8.2769   17.5720 C   0  0  0  0  0  0  0  0  0  0  0  0
    4.0470   -7.7644   16.5404 N   0  0  0  0  0  0  0  0  0  0  0  0
    4.1715   -8.6265   15.5119 C   0  0  0  0  0  0  0  0  0  0  0  0
    4.6290   -8.2498   14.3392 N   0  0  0  0  0  0  0  0  0  0  0  0
    5.0057   -9.3736   13.7183 C   0  0  0  0  0  0  0  0  0  0  0  0
    4.6535  -10.4709   14.4601 C   0  0  0  0  0  0  0  0  0  0  0  0
    3.9632  -10.1065   15.6178 N   0  0  0  0  0  0  0  0  0  0  0  0
    2.7415  -14.8760   18.6212 H   0  0  0  0  0  0  0  0  0  0  0  0
    1.4217  -15.9681   18.2218 H   0  0  0  0  0  0  0  0  0  0  0  0
    2.7546  -15.7138   17.0953 H   0  0  0  0  0  0  0  0  0  0  0  0
    1.6469  -14.0951   16.1281 H   0  0  0  0  0  0  0  0  0  0  0  0
   -0.9862  -14.5792   17.4475 H   0  0  0  0  0  0  0  0  0  0  0  0
   -1.1837  -13.1792   17.0392 H   0  0  0  0  0  0  0  0  0  0  0  0
   -1.2930  -13.9853   13.9836 H   0  0  0  0  0  0  0  0  0  0  0  0
   -3.4506  -15.9867   16.2407 H   0  0  0  0  0  0  0  0  0  0  0  0
   -2.5238  -16.8189   14.7685 H   0  0  0  0  0  0  0  0  0  0  0  0
   -3.8868  -17.5189   14.3860 H   0  0  0  0  0  0  0  0  0  0  0  0
   -5.1858  -16.4487   14.7733 H   0  0  0  0  0  0  0  0  0  0  0  0
   -5.2532  -14.6983   12.8880 H   0  0  0  0  0  0  0  0  0  0  0  0
   -3.7124  -14.9275   12.1189 H   0  0  0  0  0  0  0  0  0  0  0  0
    3.6134  -13.0681   17.4116 H   0  0  0  0  0  0  0  0  0  0  0  0
    2.3852   -9.5785   18.5979 H   0  0  0  0  0  0  0  0  0  0  0  0
    3.3590   -7.6385   18.4611 H   0  0  0  0  0  0  0  0  0  0  0  0
    5.5649   -9.3556   12.7924 H   0  0  0  0  0  0  0  0  0  0  0  0
    4.9829  -11.4790   14.3147 H   0  0  0  0  0  0  0  0  0  0  0  0
  1  2  1  0
  2  3  1  0
  3  4  1  0
  4  5  1  0
  5  6  1  0
  6  7  1  0
  7  8  1  0
  2  9  1  0
  9 10  1  0
 10 11  2  0
 11 12  1  0
 12 13  2  0
 13 14  1  0
 14 15  2  0
 15 16  1  0
 16 17  2  0
 17 18  1  0
  8  4  1  0
 18 10  1  0
 18 14  1  0
  1 19  1  0
  1 20  1  0
  1 21  1  0
  2 22  1  0
  3 23  1  0
  3 24  1  0
  4 25  1  0
  5 26  1  0
  5 27  1  0
  6 28  1  0
  6 29  1  0
  7 30  1  0
  7 31  1  0
  9 32  1  0
 11 33  1  0
 12 34  1  0
 16 35  1  0
 17 36  1  0
M  END
>  <Energy>  (622) 
799.07007109885478

>  <compound_id>  (622) 
13889

>  <target_id>  (622) 
1

>  <reference_id>  (622) 
28

>  <inspiration_ids>  (622) 
[106, 28]

>  <energy_score>  (622) 
695.0795797590496

>  <distance_score>  (622) 
12.338398033590765

>  <path>  (622) 
/opt/xchem-fragalysis-2/maxwin/BulkDock/SCRATCH/511017/C13889-P28/C13889-P28.minimised.mol

>  <scratch_subdir>  (622) 
/opt/xchem-fragalysis-2/maxwin/BulkDock/SCRATCH/511017/C13889-P28

>  <fragmenstein_runtime>  (622) 
11.290150165557861

>  <fragmenstein_outcome>  (622) 
too moved

>  <fragmenstein_mode>  (622) 
expansion

>  <fragmenstein_error>  (622) 


$$$$
C13893-P106
     RDKit          3D

 48 50  0  0  0  0  0  0  0  0999 V2000
    1.7152  -21.8858   10.9119 C   0  0  0  0  0  0  0  0  0  0  0  0
    2.2280  -20.6644   11.7149 C   0  0  0  0  0  0  0  0  0  0  0  0
    1.2609  -20.5392   12.8992 C   0  0  0  0  0  0  0  0  0  0  0  0
    2.4420  -19.2464   10.9654 C   0  0  0  0  0  0  0  0  0  0  0  0
    2.2732  -19.3191    9.4054 C   0  0  0  0  0  0  0  0  0  0  0  0
    0.9857  -19.8684    8.9343 N   0  0  0  0  0  0  0  0  0  0  0  0
    0.6914  -20.8630    7.9305 C   0  0  0  0  0  0  0  0  0  0  0  0
    1.4152  -21.4420    7.1649 O   0  0  0  0  0  0  0  0  0  0  0  0
   -0.8452  -21.3023    7.9096 C   0  0  0  0  0  0  0  0  0  0  0  0
   -1.8370  -20.2826    7.3678 C   0  0  0  0  0  0  0  0  0  0  0  0
   -3.1565  -20.5941    8.0562 C   0  0  0  0  0  0  0  0  0  0  0  0
   -2.8594  -21.7739    8.9534 C   0  0  0  0  0  0  0  0  0  0  0  0
   -1.4304  -21.7977    9.1203 O   0  0  0  0  0  0  0  0  0  0  0  0
    3.6619  -18.3578   11.4463 N   0  0  0  0  0  0  0  0  0  0  0  0
    4.8596  -17.8723   10.7144 C   0  0  0  0  0  0  0  0  0  0  0  0
    5.2362  -18.1028    9.5994 O   0  0  0  0  0  0  0  0  0  0  0  0
    5.7729  -16.7759   11.4472 C   0  0  0  0  0  0  0  0  0  0  0  0
    6.3742  -16.6976   12.7044 C   0  0  0  0  0  0  0  0  0  0  0  0
    7.1194  -15.5084   12.7543 N   0  0  0  0  0  0  0  0  0  0  0  0
    7.9412  -14.9718   13.7586 C   0  0  0  0  0  0  0  0  0  0  0  0
    8.4752  -13.7451   13.6167 C   0  0  0  0  0  0  0  0  0  0  0  0
    8.1194  -13.0508   12.3478 C   0  0  0  0  0  0  0  0  0  0  0  0
    7.3855  -13.5402   11.3933 N   0  0  0  0  0  0  0  0  0  0  0  0
    6.8937  -14.8152   11.5700 C   0  0  0  0  0  0  0  0  0  0  0  0
    6.1627  -15.5728   10.7670 N   0  0  0  0  0  0  0  0  0  0  0  0
    1.7936  -22.7935   11.5221 H   0  0  0  0  0  0  0  0  0  0  0  0
    2.3260  -22.0546   10.0210 H   0  0  0  0  0  0  0  0  0  0  0  0
    0.6654  -21.7803   10.6365 H   0  0  0  0  0  0  0  0  0  0  0  0
    3.2127  -20.9412   12.1142 H   0  0  0  0  0  0  0  0  0  0  0  0
    1.6331  -19.7867   13.5986 H   0  0  0  0  0  0  0  0  0  0  0  0
    0.2643  -20.2449   12.5744 H   0  0  0  0  0  0  0  0  0  0  0  0
    1.1831  -21.4851   13.4459 H   0  0  0  0  0  0  0  0  0  0  0  0
    1.6019  -18.6201   11.2994 H   0  0  0  0  0  0  0  0  0  0  0  0
    3.0796  -19.9146    8.9649 H   0  0  0  0  0  0  0  0  0  0  0  0
    2.3409  -18.3091    8.9866 H   0  0  0  0  0  0  0  0  0  0  0  0
    0.1088  -19.5361    9.3406 H   0  0  0  0  0  0  0  0  0  0  0  0
   -0.8643  -22.1630    7.2237 H   0  0  0  0  0  0  0  0  0  0  0  0
   -1.5229  -19.2527    7.5617 H   0  0  0  0  0  0  0  0  0  0  0  0
   -1.9232  -20.3691    6.2787 H   0  0  0  0  0  0  0  0  0  0  0  0
   -3.4849  -19.7318    8.6448 H   0  0  0  0  0  0  0  0  0  0  0  0
   -3.9589  -20.8183    7.3466 H   0  0  0  0  0  0  0  0  0  0  0  0
   -3.1601  -22.7148    8.4796 H   0  0  0  0  0  0  0  0  0  0  0  0
   -3.3477  -21.7053    9.9288 H   0  0  0  0  0  0  0  0  0  0  0  0
    3.6113  -17.8937   12.3471 H   0  0  0  0  0  0  0  0  0  0  0  0
    6.3792  -17.3890   13.5331 H   0  0  0  0  0  0  0  0  0  0  0  0
    8.1165  -15.5905   14.6299 H   0  0  0  0  0  0  0  0  0  0  0  0
    9.1224  -13.2606   14.3336 H   0  0  0  0  0  0  0  0  0  0  0  0
    8.5321  -12.0342   12.2363 H   0  0  0  0  0  0  0  0  0  0  0  0
  1  2  1  0
  2  3  1  0
  2  4  1  0
  4  5  1  0
  5  6  1  0
  6  7  1  0
  7  8  2  0
  7  9  1  0
  9 10  1  0
 10 11  1  0
 11 12  1  0
 12 13  1  0
  4 14  1  0
 14 15  1  0
 15 16  2  0
 15 17  1  0
 17 18  2  0
 18 19  1  0
 19 20  1  0
 20 21  2  0
 21 22  1  0
 22 23  2  0
 23 24  1  0
 24 25  2  0
 13  9  1  0
 25 17  1  0
 24 19  1  0
  1 26  1  0
  1 27  1  0
  1 28  1  0
  2 29  1  0
  3 30  1  0
  3 31  1  0
  3 32  1  0
  4 33  1  0
  5 34  1  0
  5 35  1  0
  6 36  1  0
  9 37  1  0
 10 38  1  0
 10 39  1  0
 11 40  1  0
 11 41  1  0
 12 42  1  0
 12 43  1  0
 14 44  1  0
 18 45  1  0
 20 46  1  0
 21 47  1  0
 22 48  1  0
M  END
>  <Energy>  (623) 
131.53358726263099

>  <compound_id>  (623) 
13893

>  <target_id>  (623) 
1

>  <reference_id>  (623) 
106

>  <inspiration_ids>  (623) 
[106, 28]

>  <energy_score>  (623) 
26.693917228580403

>  <distance_score>  (623) 
14.492033058599825

>  <path>  (623) 
/opt/xchem-fragalysis-2/maxwin/BulkDock/SCRATCH/511017/C13893-P106/C13893-P106.minimised.mol

>  <scratch_subdir>  (623) 
/opt/xchem-fragalysis-2/maxwin/BulkDock/SCRATCH/511017/C13893-P106

>  <fragmenstein_runtime>  (623) 
28.407556295394897

>  <fragmenstein_outcome>  (623) 
too moved

>  <fragmenstein_mode>  (623) 
expansion

>  <fragmenstein_error>  (623) 


$$$$
C13893-P28
     RDKit          3D

 48 50  0  0  0  0  0  0  0  0999 V2000
   -0.4201  -24.8653   10.8028 C   0  0  0  0  0  0  0  0  0  0  0  0
    0.3982  -24.0819   11.8539 C   0  0  0  0  0  0  0  0  0  0  0  0
    0.2062  -24.8457   13.1759 C   0  0  0  0  0  0  0  0  0  0  0  0
    0.0724  -22.5310   11.9069 C   0  0  0  0  0  0  0  0  0  0  0  0
   -1.2086  -22.3103   12.7609 C   0  0  0  0  0  0  0  0  0  0  0  0
   -2.6041  -22.4432   12.3281 N   0  0  0  0  0  0  0  0  0  0  0  0
   -3.1710  -22.8297   11.0612 C   0  0  0  0  0  0  0  0  0  0  0  0
   -2.6459  -23.2205   10.0554 O   0  0  0  0  0  0  0  0  0  0  0  0
   -4.8109  -22.5624   11.0235 C   0  0  0  0  0  0  0  0  0  0  0  0
   -4.8659  -21.0554   11.1052 C   0  0  0  0  0  0  0  0  0  0  0  0
   -6.2140  -20.6202   11.6237 C   0  0  0  0  0  0  0  0  0  0  0  0
   -6.7772  -21.8589   12.2308 C   0  0  0  0  0  0  0  0  0  0  0  0
   -5.9962  -22.9922   11.7223 O   0  0  0  0  0  0  0  0  0  0  0  0
    1.2623  -21.5481   12.3639 N   0  0  0  0  0  0  0  0  0  0  0  0
    2.2906  -20.8341   11.5681 C   0  0  0  0  0  0  0  0  0  0  0  0
    2.5354  -20.8793   10.3929 O   0  0  0  0  0  0  0  0  0  0  0  0
    3.2230  -19.7353   12.2950 C   0  0  0  0  0  0  0  0  0  0  0  0
    3.9580  -18.7830   11.5609 C   0  0  0  0  0  0  0  0  0  0  0  0
    4.7477  -18.0582   12.4246 N   0  0  0  0  0  0  0  0  0  0  0  0
    5.7219  -17.0801   12.1628 C   0  0  0  0  0  0  0  0  0  0  0  0
    6.4500  -16.5628   13.1649 C   0  0  0  0  0  0  0  0  0  0  0  0
    6.0855  -17.0958   14.5082 C   0  0  0  0  0  0  0  0  0  0  0  0
    5.1721  -17.9831   14.7758 N   0  0  0  0  0  0  0  0  0  0  0  0
    4.4803  -18.5287   13.7068 C   0  0  0  0  0  0  0  0  0  0  0  0
    3.5849  -19.5332   13.6492 N   0  0  0  0  0  0  0  0  0  0  0  0
    0.0213  -25.8577   10.6532 H   0  0  0  0  0  0  0  0  0  0  0  0
   -1.4523  -25.0247   11.1223 H   0  0  0  0  0  0  0  0  0  0  0  0
   -0.3987  -24.3568    9.8348 H   0  0  0  0  0  0  0  0  0  0  0  0
    1.4553  -24.1628   11.5685 H   0  0  0  0  0  0  0  0  0  0  0  0
    0.6966  -24.3193   14.0014 H   0  0  0  0  0  0  0  0  0  0  0  0
   -0.8474  -25.0034   13.4286 H   0  0  0  0  0  0  0  0  0  0  0  0
    0.6680  -25.8375   13.1060 H   0  0  0  0  0  0  0  0  0  0  0  0
   -0.1052  -22.2055   10.8758 H   0  0  0  0  0  0  0  0  0  0  0  0
   -1.1525  -22.9141   13.6629 H   0  0  0  0  0  0  0  0  0  0  0  0
   -1.1656  -21.2754   13.1036 H   0  0  0  0  0  0  0  0  0  0  0  0
   -3.3620  -22.2432   12.9841 H   0  0  0  0  0  0  0  0  0  0  0  0
   -5.0287  -22.8666    9.9892 H   0  0  0  0  0  0  0  0  0  0  0  0
   -4.6014  -20.7037   10.1059 H   0  0  0  0  0  0  0  0  0  0  0  0
   -4.1164  -20.6394   11.7826 H   0  0  0  0  0  0  0  0  0  0  0  0
   -6.8874  -20.2345   10.8602 H   0  0  0  0  0  0  0  0  0  0  0  0
   -6.1338  -19.7708   12.2955 H   0  0  0  0  0  0  0  0  0  0  0  0
   -6.8215  -21.8220   13.2995 H   0  0  0  0  0  0  0  0  0  0  0  0
   -7.8512  -21.9665   12.0649 H   0  0  0  0  0  0  0  0  0  0  0  0
    1.2860  -21.2046   13.3244 H   0  0  0  0  0  0  0  0  0  0  0  0
    3.9827  -18.6102   10.4947 H   0  0  0  0  0  0  0  0  0  0  0  0
    5.8611  -16.8093   11.1240 H   0  0  0  0  0  0  0  0  0  0  0  0
    7.2386  -15.8363   13.0481 H   0  0  0  0  0  0  0  0  0  0  0  0
    6.6606  -16.6723   15.3480 H   0  0  0  0  0  0  0  0  0  0  0  0
  1  2  1  0
  2  3  1  0
  2  4  1  0
  4  5  1  0
  5  6  1  0
  6  7  1  0
  7  8  2  0
  7  9  1  0
  9 10  1  0
 10 11  1  0
 11 12  1  0
 12 13  1  0
  4 14  1  0
 14 15  1  0
 15 16  2  0
 15 17  1  0
 17 18  2  0
 18 19  1  0
 19 20  1  0
 20 21  2  0
 21 22  1  0
 22 23  2  0
 23 24  1  0
 24 25  2  0
 13  9  1  0
 25 17  1  0
 24 19  1  0
  1 26  1  0
  1 27  1  0
  1 28  1  0
  2 29  1  0
  3 30  1  0
  3 31  1  0
  3 32  1  0
  4 33  1  0
  5 34  1  0
  5 35  1  0
  6 36  1  0
  9 37  1  0
 10 38  1  0
 10 39  1  0
 11 40  1  0
 11 41  1  0
 12 42  1  0
 12 43  1  0
 14 44  1  0
 18 45  1  0
 20 46  1  0
 21 47  1  0
 22 48  1  0
M  END
>  <Energy>  (624) 
146.70506405235048

>  <compound_id>  (624) 
13893

>  <target_id>  (624) 
1

>  <reference_id>  (624) 
28

>  <inspiration_ids>  (624) 
[106, 28]

>  <energy_score>  (624) 
41.86539401830214

>  <distance_score>  (624) 
14.700959261378193

>  <path>  (624) 
/opt/xchem-fragalysis-2/maxwin/BulkDock/SCRATCH/511017/C13893-P28/C13893-P28.minimised.mol

>  <scratch_subdir>  (624) 
/opt/xchem-fragalysis-2/maxwin/BulkDock/SCRATCH/511017/C13893-P28

>  <fragmenstein_runtime>  (624) 
21.97298836708069

>  <fragmenstein_outcome>  (624) 
too moved

>  <fragmenstein_mode>  (624) 
expansion

>  <fragmenstein_error>  (624) 


$$$$
C13900-P106
     RDKit          3D

 35 37  0  0  0  0  0  0  0  0999 V2000
   -0.0543  -13.0169    7.4861 C   0  0  0  0  0  0  0  0  0  0  0  0
   -1.2417  -12.4906    9.4766 N   0  0  0  0  0  0  0  0  0  0  0  0
   -2.6204  -14.0029    9.0971 C   0  0  0  0  0  0  0  0  0  0  0  0
   -4.5514  -13.5976    8.4606 C   0  0  0  0  0  0  0  0  0  0  0  0
   -6.0806  -14.0808    8.8318 C   0  0  0  0  0  0  0  0  0  0  0  0
   -6.9870  -13.1913    7.9886 C   0  0  0  0  0  0  0  0  0  0  0  0
   -6.0605  -12.4466    7.0494 C   0  0  0  0  0  0  0  0  0  0  0  0
   -4.7453  -12.3837    7.6386 O   0  0  0  0  0  0  0  0  0  0  0  0
   -0.0105  -12.5301   10.9369 C   0  0  0  0  0  0  0  0  0  0  0  0
    0.2648  -13.3919   11.7009 O   0  0  0  0  0  0  0  0  0  0  0  0
    0.9558  -11.0979   11.1985 C   0  0  0  0  0  0  0  0  0  0  0  0
    2.3915  -10.9556   11.1702 C   0  0  0  0  0  0  0  0  0  0  0  0
    2.6345   -9.5822   11.1714 N   0  0  0  0  0  0  0  0  0  0  0  0
    3.5565   -8.2093   11.6422 C   0  0  0  0  0  0  0  0  0  0  0  0
    3.6648   -6.9541   11.2293 C   0  0  0  0  0  0  0  0  0  0  0  0
    2.4911   -6.8063   10.4986 C   0  0  0  0  0  0  0  0  0  0  0  0
    1.3440   -7.5279   10.5544 N   0  0  0  0  0  0  0  0  0  0  0  0
    1.3332   -8.9745   10.8754 C   0  0  0  0  0  0  0  0  0  0  0  0
    0.6852   -9.9866   10.4170 N   0  0  0  0  0  0  0  0  0  0  0  0
   -0.4761  -12.9246    6.3499 H   0  0  0  0  0  0  0  0  0  0  0  0
    0.8366  -12.2605    7.1637 H   0  0  0  0  0  0  0  0  0  0  0  0
    0.7386  -13.9276    7.2820 H   0  0  0  0  0  0  0  0  0  0  0  0
   -2.3485  -15.1232    9.1563 H   0  0  0  0  0  0  0  0  0  0  0  0
   -2.9038  -14.3808   10.1098 H   0  0  0  0  0  0  0  0  0  0  0  0
   -4.7936  -14.2858    7.6013 H   0  0  0  0  0  0  0  0  0  0  0  0
   -6.4171  -14.0288    9.8681 H   0  0  0  0  0  0  0  0  0  0  0  0
   -6.2855  -15.1021    8.4771 H   0  0  0  0  0  0  0  0  0  0  0  0
   -7.5263  -12.4818    8.6269 H   0  0  0  0  0  0  0  0  0  0  0  0
   -7.7492  -13.7573    7.4433 H   0  0  0  0  0  0  0  0  0  0  0  0
   -6.4081  -11.4296    6.8460 H   0  0  0  0  0  0  0  0  0  0  0  0
   -5.9731  -12.9708    6.0909 H   0  0  0  0  0  0  0  0  0  0  0  0
    3.1638  -11.6499   10.8987 H   0  0  0  0  0  0  0  0  0  0  0  0
    4.0054   -8.2964   12.6364 H   0  0  0  0  0  0  0  0  0  0  0  0
    4.2306   -6.1423   11.6522 H   0  0  0  0  0  0  0  0  0  0  0  0
    2.5802   -5.9567    9.7653 H   0  0  0  0  0  0  0  0  0  0  0  0
  1  2  1  0
  2  3  1  0
  3  4  1  0
  4  5  1  0
  5  6  1  0
  6  7  1  0
  7  8  1  0
  2  9  1  0
  9 10  2  0
  9 11  1  0
 11 12  2  0
 12 13  1  0
 13 14  1  0
 14 15  2  0
 15 16  1  0
 16 17  2  0
 17 18  1  0
 18 19  2  0
  8  4  1  0
 19 11  1  0
 18 13  1  0
  1 20  1  0
  1 21  1  0
  1 22  1  0
  3 23  1  0
  3 24  1  0
  4 25  1  0
  5 26  1  0
  5 27  1  0
  6 28  1  0
  6 29  1  0
  7 30  1  0
  7 31  1  0
 12 32  1  0
 14 33  1  0
 15 34  1  0
 16 35  1  0
M  END
>  <Energy>  (625) 
995.80030125893381

>  <compound_id>  (625) 
13900

>  <target_id>  (625) 
1

>  <reference_id>  (625) 
106

>  <inspiration_ids>  (625) 
[106, 28]

>  <energy_score>  (625) 
891.4279794436255

>  <distance_score>  (625) 
13.941187285912394

>  <path>  (625) 
/opt/xchem-fragalysis-2/maxwin/BulkDock/SCRATCH/511017/C13900-P106/C13900-P106.minimised.mol

>  <scratch_subdir>  (625) 
/opt/xchem-fragalysis-2/maxwin/BulkDock/SCRATCH/511017/C13900-P106

>  <fragmenstein_runtime>  (625) 
11.03844428062439

>  <fragmenstein_outcome>  (625) 
too moved

>  <fragmenstein_mode>  (625) 
expansion

>  <fragmenstein_error>  (625) 


$$$$
C13900-P28
     RDKit          3D

 35 37  0  0  0  0  0  0  0  0999 V2000
    2.8772  -14.7955   18.1657 C   0  0  0  0  0  0  0  0  0  0  0  0
    1.8336  -13.7344   17.8858 N   0  0  0  0  0  0  0  0  0  0  0  0
    0.8745  -14.8398   18.7064 C   0  0  0  0  0  0  0  0  0  0  0  0
   -0.6636  -14.5247   18.7618 C   0  0  0  0  0  0  0  0  0  0  0  0
   -1.3012  -13.4267   19.5757 C   0  0  0  0  0  0  0  0  0  0  0  0
   -2.7635  -13.8631   19.5675 C   0  0  0  0  0  0  0  0  0  0  0  0
   -2.6831  -15.3700   19.6409 C   0  0  0  0  0  0  0  0  0  0  0  0
   -1.3129  -15.6963   19.3626 O   0  0  0  0  0  0  0  0  0  0  0  0
    1.8875  -13.2526   16.2315 C   0  0  0  0  0  0  0  0  0  0  0  0
    1.2088  -13.8527   15.5795 O   0  0  0  0  0  0  0  0  0  0  0  0
    3.3582  -11.7313   15.7373 C   0  0  0  0  0  0  0  0  0  0  0  0
    4.7838  -11.6777   14.7354 C   0  0  0  0  0  0  0  0  0  0  0  0
    5.4648  -10.4570   14.0244 N   0  0  0  0  0  0  0  0  0  0  0  0
    6.9829   -9.9019   13.6413 C   0  0  0  0  0  0  0  0  0  0  0  0
    7.1982   -8.4728   13.7135 C   0  0  0  0  0  0  0  0  0  0  0  0
    5.7179   -7.4748   13.8261 C   0  0  0  0  0  0  0  0  0  0  0  0
    4.4540   -8.0457   13.8615 N   0  0  0  0  0  0  0  0  0  0  0  0
    4.3736   -9.6519   14.0000 C   0  0  0  0  0  0  0  0  0  0  0  0
    3.4464  -10.3065   14.7161 N   0  0  0  0  0  0  0  0  0  0  0  0
    2.9814  -15.1449   19.2023 H   0  0  0  0  0  0  0  0  0  0  0  0
    3.8404  -14.3050   18.0367 H   0  0  0  0  0  0  0  0  0  0  0  0
    2.8419  -15.6098   17.4315 H   0  0  0  0  0  0  0  0  0  0  0  0
    0.9658  -15.8492   18.2891 H   0  0  0  0  0  0  0  0  0  0  0  0
    1.1787  -14.9824   19.7598 H   0  0  0  0  0  0  0  0  0  0  0  0
   -1.0029  -14.3507   17.7395 H   0  0  0  0  0  0  0  0  0  0  0  0
   -1.1909  -12.4335   19.1420 H   0  0  0  0  0  0  0  0  0  0  0  0
   -0.9190  -13.4205   20.6026 H   0  0  0  0  0  0  0  0  0  0  0  0
   -3.3425  -13.4296   20.3878 H   0  0  0  0  0  0  0  0  0  0  0  0
   -3.2430  -13.5603   18.6298 H   0  0  0  0  0  0  0  0  0  0  0  0
   -3.3371  -15.8564   18.9110 H   0  0  0  0  0  0  0  0  0  0  0  0
   -2.9256  -15.7461   20.6390 H   0  0  0  0  0  0  0  0  0  0  0  0
    5.3771  -12.4221   14.2547 H   0  0  0  0  0  0  0  0  0  0  0  0
    7.7569  -10.6382   13.4778 H   0  0  0  0  0  0  0  0  0  0  0  0
    8.0553   -7.8823   13.5396 H   0  0  0  0  0  0  0  0  0  0  0  0
    5.6684   -6.6197   13.1688 H   0  0  0  0  0  0  0  0  0  0  0  0
  1  2  1  0
  2  3  1  0
  3  4  1  0
  4  5  1  0
  5  6  1  0
  6  7  1  0
  7  8  1  0
  2  9  1  0
  9 10  2  0
  9 11  1  0
 11 12  2  0
 12 13  1  0
 13 14  1  0
 14 15  2  0
 15 16  1  0
 16 17  2  0
 17 18  1  0
 18 19  2  0
  8  4  1  0
 19 11  1  0
 18 13  1  0
  1 20  1  0
  1 21  1  0
  1 22  1  0
  3 23  1  0
  3 24  1  0
  4 25  1  0
  5 26  1  0
  5 27  1  0
  6 28  1  0
  6 29  1  0
  7 30  1  0
  7 31  1  0
 12 32  1  0
 14 33  1  0
 15 34  1  0
 16 35  1  0
M  END
>  <Energy>  (626) 
680.72324478822054

>  <compound_id>  (626) 
13900

>  <target_id>  (626) 
1

>  <reference_id>  (626) 
28

>  <inspiration_ids>  (626) 
[106, 28]

>  <energy_score>  (626) 
576.3509229729116

>  <distance_score>  (626) 
12.848387455034832

>  <path>  (626) 
/opt/xchem-fragalysis-2/maxwin/BulkDock/SCRATCH/511017/C13900-P28/C13900-P28.minimised.mol

>  <scratch_subdir>  (626) 
/opt/xchem-fragalysis-2/maxwin/BulkDock/SCRATCH/511017/C13900-P28

>  <fragmenstein_runtime>  (626) 
10.641707420349121

>  <fragmenstein_outcome>  (626) 
too moved

>  <fragmenstein_mode>  (626) 
expansion

>  <fragmenstein_error>  (626) 


$$$$
C13901-P106
     RDKit          3D

 34 36  0  0  0  0  0  0  0  0999 V2000
    0.3488  -13.2647   11.9834 C   0  0  0  0  0  0  0  0  0  0  0  0
    0.1702  -12.5399   13.3158 C   0  0  0  0  0  0  0  0  0  0  0  0
    1.8035  -11.4717   13.6921 O   0  0  0  0  0  0  0  0  0  0  0  0
    3.4884  -10.6388   13.2758 C   0  0  0  0  0  0  0  0  0  0  0  0
    3.5800  -10.5615   12.0599 O   0  0  0  0  0  0  0  0  0  0  0  0
    5.1703   -9.9293   14.1208 C   0  0  0  0  0  0  0  0  0  0  0  0
    6.8155   -9.6046   13.5353 C   0  0  0  0  0  0  0  0  0  0  0  0
    7.9588   -9.6752   14.2090 N   0  0  0  0  0  0  0  0  0  0  0  0
    7.7024   -8.4258   14.2390 C   0  0  0  0  0  0  0  0  0  0  0  0
    8.5516   -7.4963   14.5256 N   0  0  0  0  0  0  0  0  0  0  0  0
    8.1323   -6.4139   15.0308 C   0  0  0  0  0  0  0  0  0  0  0  0
    6.9834   -5.9907   15.9403 C   0  0  0  0  0  0  0  0  0  0  0  0
    6.1246   -6.8400   15.4685 C   0  0  0  0  0  0  0  0  0  0  0  0
    6.1047   -8.2014   14.2157 N   0  0  0  0  0  0  0  0  0  0  0  0
   -1.1710  -13.8735   14.1070 C   0  0  0  0  0  0  0  0  0  0  0  0
   -1.9676  -14.4194   15.8356 C   0  0  0  0  0  0  0  0  0  0  0  0
   -3.4593  -14.9487   15.7905 C   0  0  0  0  0  0  0  0  0  0  0  0
   -3.9266  -14.9927   14.3915 C   0  0  0  0  0  0  0  0  0  0  0  0
   -3.0792  -14.0527   13.6250 O   0  0  0  0  0  0  0  0  0  0  0  0
    0.8149  -14.2257   12.1617 H   0  0  0  0  0  0  0  0  0  0  0  0
   -0.5656  -13.5625   11.4895 H   0  0  0  0  0  0  0  0  0  0  0  0
    0.8903  -12.6123   11.3143 H   0  0  0  0  0  0  0  0  0  0  0  0
   -0.4984  -11.7702   12.9362 H   0  0  0  0  0  0  0  0  0  0  0  0
    7.1279   -9.0759   12.5762 H   0  0  0  0  0  0  0  0  0  0  0  0
    8.6237   -5.5011   14.5557 H   0  0  0  0  0  0  0  0  0  0  0  0
    6.8589   -5.8674   17.0080 H   0  0  0  0  0  0  0  0  0  0  0  0
    5.3014   -6.6867   16.2514 H   0  0  0  0  0  0  0  0  0  0  0  0
   -0.5870  -14.6119   13.5482 H   0  0  0  0  0  0  0  0  0  0  0  0
   -1.4955  -15.1793   16.2499 H   0  0  0  0  0  0  0  0  0  0  0  0
   -1.9081  -13.6572   16.6266 H   0  0  0  0  0  0  0  0  0  0  0  0
   -3.6987  -15.8867   16.2868 H   0  0  0  0  0  0  0  0  0  0  0  0
   -4.0790  -14.2937   16.3932 H   0  0  0  0  0  0  0  0  0  0  0  0
   -3.9309  -16.0112   14.0033 H   0  0  0  0  0  0  0  0  0  0  0  0
   -4.9695  -14.6854   14.2625 H   0  0  0  0  0  0  0  0  0  0  0  0
  1  2  1  0
  2  3  1  0
  3  4  1  0
  4  5  2  0
  4  6  1  0
  6  7  2  0
  7  8  1  0
  8  9  2  0
  9 10  1  0
 10 11  2  0
 11 12  1  0
 12 13  2  0
 13 14  1  0
  2 15  1  0
 15 16  1  0
 16 17  1  0
 17 18  1  0
 18 19  1  0
 14  6  1  0
 19 15  1  0
 14  9  1  0
  1 20  1  0
  1 21  1  0
  1 22  1  0
  2 23  1  0
  7 24  1  0
 11 25  1  0
 12 26  1  0
 13 27  1  0
 15 28  1  0
 16 29  1  0
 16 30  1  0
 17 31  1  0
 17 32  1  0
 18 33  1  0
 18 34  1  0
M  END
>  <Energy>  (627) 
1108.8889804034625

>  <compound_id>  (627) 
13901

>  <target_id>  (627) 
1

>  <reference_id>  (627) 
106

>  <inspiration_ids>  (627) 
[106, 28]

>  <energy_score>  (627) 
1057.4839507221648

>  <distance_score>  (627) 
10.515262658895507

>  <path>  (627) 
/opt/xchem-fragalysis-2/maxwin/BulkDock/SCRATCH/511017/C13901-P106/C13901-P106.minimised.mol

>  <scratch_subdir>  (627) 
/opt/xchem-fragalysis-2/maxwin/BulkDock/SCRATCH/511017/C13901-P106

>  <fragmenstein_runtime>  (627) 
8.515215396881104

>  <fragmenstein_outcome>  (627) 
too moved

>  <fragmenstein_mode>  (627) 
expansion

>  <fragmenstein_error>  (627) 


$$$$
C13901-P28
     RDKit          3D

 34 36  0  0  0  0  0  0  0  0999 V2000
    2.0534  -13.9706   16.8722 C   0  0  0  0  0  0  0  0  0  0  0  0
    2.3158  -12.4862   15.2724 C   0  0  0  0  0  0  0  0  0  0  0  0
    3.7998  -10.9567   15.1468 O   0  0  0  0  0  0  0  0  0  0  0  0
    5.2844   -9.9510   14.3179 C   0  0  0  0  0  0  0  0  0  0  0  0
    5.8642  -10.6939   13.5166 O   0  0  0  0  0  0  0  0  0  0  0  0
    6.2864   -8.0828   14.3745 C   0  0  0  0  0  0  0  0  0  0  0  0
    6.7907   -6.6479   15.0648 C   0  0  0  0  0  0  0  0  0  0  0  0
    6.3452   -6.0704   16.2072 N   0  0  0  0  0  0  0  0  0  0  0  0
    7.4730   -5.5540   15.8530 C   0  0  0  0  0  0  0  0  0  0  0  0
    8.4538   -4.0297   15.5401 N   0  0  0  0  0  0  0  0  0  0  0  0
    9.8914   -4.0866   15.1317 C   0  0  0  0  0  0  0  0  0  0  0  0
   10.8146   -5.7479   15.2829 C   0  0  0  0  0  0  0  0  0  0  0  0
    9.6686   -7.1049   15.2431 C   0  0  0  0  0  0  0  0  0  0  0  0
    7.8719   -7.1481   14.8841 N   0  0  0  0  0  0  0  0  0  0  0  0
    1.1163  -13.0075   13.8094 C   0  0  0  0  0  0  0  0  0  0  0  0
   -0.4061  -13.4393   13.5197 C   0  0  0  0  0  0  0  0  0  0  0  0
   -1.2146  -14.0812   15.2422 C   0  0  0  0  0  0  0  0  0  0  0  0
   -0.3727  -14.0912   16.4563 C   0  0  0  0  0  0  0  0  0  0  0  0
    0.8495  -14.2207   15.3981 O   0  0  0  0  0  0  0  0  0  0  0  0
    2.8000  -13.8208   17.7262 H   0  0  0  0  0  0  0  0  0  0  0  0
    1.2359  -14.0128   17.5628 H   0  0  0  0  0  0  0  0  0  0  0  0
    2.3794  -15.0055   16.5843 H   0  0  0  0  0  0  0  0  0  0  0  0
    1.6336  -12.1291   15.8845 H   0  0  0  0  0  0  0  0  0  0  0  0
    8.1149   -5.8145   14.4614 H   0  0  0  0  0  0  0  0  0  0  0  0
   10.5286   -3.1988   14.9788 H   0  0  0  0  0  0  0  0  0  0  0  0
   11.8436   -5.6598   15.6280 H   0  0  0  0  0  0  0  0  0  0  0  0
    9.9121   -8.1630   15.4235 H   0  0  0  0  0  0  0  0  0  0  0  0
    0.9626  -11.9739   13.8011 H   0  0  0  0  0  0  0  0  0  0  0  0
   -0.3807  -14.1616   12.6905 H   0  0  0  0  0  0  0  0  0  0  0  0
   -0.7165  -12.4628   13.1738 H   0  0  0  0  0  0  0  0  0  0  0  0
   -1.9398  -14.7260   14.7756 H   0  0  0  0  0  0  0  0  0  0  0  0
   -1.8772  -13.6612   16.1220 H   0  0  0  0  0  0  0  0  0  0  0  0
   -0.3745  -13.2182   17.1186 H   0  0  0  0  0  0  0  0  0  0  0  0
   -0.4626  -14.7336   17.3374 H   0  0  0  0  0  0  0  0  0  0  0  0
  1  2  1  0
  2  3  1  0
  3  4  1  0
  4  5  2  0
  4  6  1  0
  6  7  2  0
  7  8  1  0
  8  9  2  0
  9 10  1  0
 10 11  2  0
 11 12  1  0
 12 13  2  0
 13 14  1  0
  2 15  1  0
 15 16  1  0
 16 17  1  0
 17 18  1  0
 18 19  1  0
 14  6  1  0
 19 15  1  0
 14  9  1  0
  1 20  1  0
  1 21  1  0
  1 22  1  0
  2 23  1  0
  7 24  1  0
 11 25  1  0
 12 26  1  0
 13 27  1  0
 15 28  1  0
 16 29  1  0
 16 30  1  0
 17 31  1  0
 17 32  1  0
 18 33  1  0
 18 34  1  0
M  END
>  <Energy>  (628) 
2013.3775581273385

>  <compound_id>  (628) 
13901

>  <target_id>  (628) 
1

>  <reference_id>  (628) 
28

>  <inspiration_ids>  (628) 
[106, 28]

>  <energy_score>  (628) 
1961.972528446059

>  <distance_score>  (628) 
10.49149707707381

>  <path>  (628) 
/opt/xchem-fragalysis-2/maxwin/BulkDock/SCRATCH/511017/C13901-P28/C13901-P28.minimised.mol

>  <scratch_subdir>  (628) 
/opt/xchem-fragalysis-2/maxwin/BulkDock/SCRATCH/511017/C13901-P28

>  <fragmenstein_runtime>  (628) 
12.167099952697754

>  <fragmenstein_outcome>  (628) 
too moved

>  <fragmenstein_mode>  (628) 
expansion

>  <fragmenstein_error>  (628) 


$$$$
C13902-P106
     RDKit          3D

 37 40  0  0  0  0  0  0  0  0999 V2000
   -3.1848   -9.7869   16.1004 O   0  0  0  0  0  0  0  0  0  0  0  0
   -3.3180   -9.3761   14.9214 C   0  0  0  0  0  0  0  0  0  0  0  0
   -1.8129   -9.0176   14.1152 O   0  0  0  0  0  0  0  0  0  0  0  0
   -0.8059   -7.4057   13.9793 C   0  0  0  0  0  0  0  0  0  0  0  0
   -0.3113   -5.9558   14.8142 C   0  0  0  0  0  0  0  0  0  0  0  0
    0.2619   -5.8370   16.0883 C   0  0  0  0  0  0  0  0  0  0  0  0
    1.1649   -4.7885   16.0303 N   0  0  0  0  0  0  0  0  0  0  0  0
    2.0648   -4.3178   16.9853 C   0  0  0  0  0  0  0  0  0  0  0  0
    2.8829   -3.3005   16.6790 C   0  0  0  0  0  0  0  0  0  0  0  0
    2.7742   -2.8041   15.2796 C   0  0  0  0  0  0  0  0  0  0  0  0
    1.9375   -3.2269   14.3788 N   0  0  0  0  0  0  0  0  0  0  0  0
    1.0885   -4.2397   14.7525 C   0  0  0  0  0  0  0  0  0  0  0  0
    0.1731   -4.8875   14.0396 N   0  0  0  0  0  0  0  0  0  0  0  0
   -4.8503   -9.1697   14.5322 C   0  0  0  0  0  0  0  0  0  0  0  0
   -5.5082   -8.6687   15.7031 N   0  0  0  0  0  0  0  0  0  0  0  0
   -6.7781   -8.6891   15.4652 C   0  0  0  0  0  0  0  0  0  0  0  0
   -7.0756   -9.0568   14.2261 O   0  0  0  0  0  0  0  0  0  0  0  0
   -5.8851   -9.4570   13.5985 C   0  0  0  0  0  0  0  0  0  0  0  0
   -6.3547   -9.9987   12.2913 C   0  0  0  0  0  0  0  0  0  0  0  0
   -5.6940   -9.7932   10.9765 C   0  0  0  0  0  0  0  0  0  0  0  0
   -6.6913  -10.5184   10.0785 C   0  0  0  0  0  0  0  0  0  0  0  0
   -7.2546  -11.6301   10.9726 C   0  0  0  0  0  0  0  0  0  0  0  0
   -6.7557  -11.3848   12.3038 O   0  0  0  0  0  0  0  0  0  0  0  0
   -0.6701   -7.1907   12.9237 H   0  0  0  0  0  0  0  0  0  0  0  0
   -0.0107   -7.6986   14.6241 H   0  0  0  0  0  0  0  0  0  0  0  0
    0.2460   -6.5067   16.9390 H   0  0  0  0  0  0  0  0  0  0  0  0
    2.0403   -4.7875   17.9606 H   0  0  0  0  0  0  0  0  0  0  0  0
    3.5640   -2.8338   17.3709 H   0  0  0  0  0  0  0  0  0  0  0  0
    3.4763   -1.9961   15.0138 H   0  0  0  0  0  0  0  0  0  0  0  0
   -7.5926   -8.4171   16.1197 H   0  0  0  0  0  0  0  0  0  0  0  0
   -7.3140   -9.4617   12.1557 H   0  0  0  0  0  0  0  0  0  0  0  0
   -5.5809   -8.7398   10.7044 H   0  0  0  0  0  0  0  0  0  0  0  0
   -4.7142  -10.2568   10.9641 H   0  0  0  0  0  0  0  0  0  0  0  0
   -6.2639  -10.8849    9.1416 H   0  0  0  0  0  0  0  0  0  0  0  0
   -7.5052   -9.8382    9.7957 H   0  0  0  0  0  0  0  0  0  0  0  0
   -6.9583  -12.6311   10.6534 H   0  0  0  0  0  0  0  0  0  0  0  0
   -8.3491  -11.5967   10.9978 H   0  0  0  0  0  0  0  0  0  0  0  0
  1  2  2  0
  2  3  1  0
  3  4  1  0
  4  5  1  0
  5  6  2  0
  6  7  1  0
  7  8  1  0
  8  9  2  0
  9 10  1  0
 10 11  2  0
 11 12  1  0
 12 13  2  0
  2 14  1  0
 14 15  1  0
 15 16  2  0
 16 17  1  0
 17 18  1  0
 18 19  1  0
 19 20  1  0
 20 21  1  0
 21 22  1  0
 22 23  1  0
 13  5  1  0
 18 14  2  0
 23 19  1  0
 12  7  1  0
  4 24  1  0
  4 25  1  0
  6 26  1  0
  8 27  1  0
  9 28  1  0
 10 29  1  0
 16 30  1  0
 19 31  1  0
 20 32  1  0
 20 33  1  0
 21 34  1  0
 21 35  1  0
 22 36  1  0
 22 37  1  0
M  END
>  <Energy>  (629) 
332.85449454083727

>  <compound_id>  (629) 
13902

>  <target_id>  (629) 
1

>  <reference_id>  (629) 
106

>  <inspiration_ids>  (629) 
[106, 28]

>  <energy_score>  (629) 
223.75791998835194

>  <distance_score>  (629) 
15.538431326640499

>  <path>  (629) 
/opt/xchem-fragalysis-2/maxwin/BulkDock/SCRATCH/511017/C13902-P106/C13902-P106.minimised.mol

>  <scratch_subdir>  (629) 
/opt/xchem-fragalysis-2/maxwin/BulkDock/SCRATCH/511017/C13902-P106

>  <fragmenstein_runtime>  (629) 
6.631697416305542

>  <fragmenstein_outcome>  (629) 
too moved

>  <fragmenstein_mode>  (629) 
expansion

>  <fragmenstein_error>  (629) 


$$$$
C13902-P28
     RDKit          3D

 37 40  0  0  0  0  0  0  0  0999 V2000
   -3.7392  -17.4499   16.0936 O   0  0  0  0  0  0  0  0  0  0  0  0
   -4.0362  -16.4209   15.4877 C   0  0  0  0  0  0  0  0  0  0  0  0
   -3.3220  -15.0184   16.2948 O   0  0  0  0  0  0  0  0  0  0  0  0
   -1.9240  -14.2748   17.3815 C   0  0  0  0  0  0  0  0  0  0  0  0
   -0.0781  -14.6190   17.6165 C   0  0  0  0  0  0  0  0  0  0  0  0
    0.7019  -15.8922   18.1803 C   0  0  0  0  0  0  0  0  0  0  0  0
    2.0647  -15.7564   18.3207 N   0  0  0  0  0  0  0  0  0  0  0  0
    2.9766  -16.6120   18.9287 C   0  0  0  0  0  0  0  0  0  0  0  0
    4.1903  -16.1719   19.2752 C   0  0  0  0  0  0  0  0  0  0  0  0
    4.3900  -14.7538   18.9708 C   0  0  0  0  0  0  0  0  0  0  0  0
    3.5895  -14.0131   18.2757 N   0  0  0  0  0  0  0  0  0  0  0  0
    2.3412  -14.5074   17.8971 C   0  0  0  0  0  0  0  0  0  0  0  0
    1.1950  -13.8908   17.3839 N   0  0  0  0  0  0  0  0  0  0  0  0
   -5.2533  -16.5119   13.9919 C   0  0  0  0  0  0  0  0  0  0  0  0
   -5.5644  -15.3165   13.0385 N   0  0  0  0  0  0  0  0  0  0  0  0
   -6.6342  -15.5100   12.3328 C   0  0  0  0  0  0  0  0  0  0  0  0
   -7.1730  -16.6959   12.5091 O   0  0  0  0  0  0  0  0  0  0  0  0
   -6.4029  -17.4437   13.3856 C   0  0  0  0  0  0  0  0  0  0  0  0
   -7.1587  -18.7890   13.3849 C   0  0  0  0  0  0  0  0  0  0  0  0
   -7.9023  -19.2268   12.1193 C   0  0  0  0  0  0  0  0  0  0  0  0
   -8.3829  -20.5793   12.5889 C   0  0  0  0  0  0  0  0  0  0  0  0
   -7.1694  -21.0916   13.3338 C   0  0  0  0  0  0  0  0  0  0  0  0
   -6.3710  -19.9441   13.6747 O   0  0  0  0  0  0  0  0  0  0  0  0
   -2.1568  -14.7250   18.3266 H   0  0  0  0  0  0  0  0  0  0  0  0
   -2.1272  -13.2099   17.3845 H   0  0  0  0  0  0  0  0  0  0  0  0
    0.4208  -16.8854   18.1462 H   0  0  0  0  0  0  0  0  0  0  0  0
    2.6400  -17.6153   19.1545 H   0  0  0  0  0  0  0  0  0  0  0  0
    4.9481  -16.7522   19.7774 H   0  0  0  0  0  0  0  0  0  0  0  0
    5.3174  -14.3267   19.3866 H   0  0  0  0  0  0  0  0  0  0  0  0
   -7.0959  -14.8327   11.6304 H   0  0  0  0  0  0  0  0  0  0  0  0
   -7.9885  -18.6802   14.1005 H   0  0  0  0  0  0  0  0  0  0  0  0
   -7.2319  -19.3489   11.2637 H   0  0  0  0  0  0  0  0  0  0  0  0
   -8.7204  -18.5608   11.8376 H   0  0  0  0  0  0  0  0  0  0  0  0
   -8.7253  -21.2404   11.7989 H   0  0  0  0  0  0  0  0  0  0  0  0
   -9.2228  -20.4625   13.2859 H   0  0  0  0  0  0  0  0  0  0  0  0
   -7.4545  -21.6053   14.2550 H   0  0  0  0  0  0  0  0  0  0  0  0
   -6.5571  -21.7582   12.7199 H   0  0  0  0  0  0  0  0  0  0  0  0
  1  2  2  0
  2  3  1  0
  3  4  1  0
  4  5  1  0
  5  6  2  0
  6  7  1  0
  7  8  1  0
  8  9  2  0
  9 10  1  0
 10 11  2  0
 11 12  1  0
 12 13  2  0
  2 14  1  0
 14 15  1  0
 15 16  2  0
 16 17  1  0
 17 18  1  0
 18 19  1  0
 19 20  1  0
 20 21  1  0
 21 22  1  0
 22 23  1  0
 13  5  1  0
 18 14  2  0
 23 19  1  0
 12  7  1  0
  4 24  1  0
  4 25  1  0
  6 26  1  0
  8 27  1  0
  9 28  1  0
 10 29  1  0
 16 30  1  0
 19 31  1  0
 20 32  1  0
 20 33  1  0
 21 34  1  0
 21 35  1  0
 22 36  1  0
 22 37  1  0
M  END
>  <Energy>  (630) 
449.78947827013207

>  <compound_id>  (630) 
13902

>  <target_id>  (630) 
1

>  <reference_id>  (630) 
28

>  <inspiration_ids>  (630) 
[106, 28]

>  <energy_score>  (630) 
340.69290371765373

>  <distance_score>  (630) 
16.05331586313648

>  <path>  (630) 
/opt/xchem-fragalysis-2/maxwin/BulkDock/SCRATCH/511017/C13902-P28/C13902-P28.minimised.mol

>  <scratch_subdir>  (630) 
/opt/xchem-fragalysis-2/maxwin/BulkDock/SCRATCH/511017/C13902-P28

>  <fragmenstein_runtime>  (630) 
9.805216073989868

>  <fragmenstein_outcome>  (630) 
too moved

>  <fragmenstein_mode>  (630) 
expansion

>  <fragmenstein_error>  (630) 


$$$$
C13911-P106
     RDKit          3D

 46 48  0  0  0  0  0  0  0  0999 V2000
   -1.8213  -13.8411   17.2301 C   0  0  0  0  0  0  0  0  0  0  0  0
   -0.3544  -13.6402   17.7056 N   0  0  0  0  0  0  0  0  0  0  0  0
   -1.7756  -14.1308   16.2779 C   0  0  0  0  0  0  0  0  0  0  0  0
   -3.3267  -15.3971   15.6436 C   0  0  0  0  0  0  0  0  0  0  0  0
   -4.3177  -15.2068   16.7155 O   0  0  0  0  0  0  0  0  0  0  0  0
   -3.8685  -17.2531   14.8946 C   0  0  0  0  0  0  0  0  0  0  0  0
   -4.5863  -18.6195   13.4911 N   0  0  0  0  0  0  0  0  0  0  0  0
   -3.8226  -20.2077   12.7963 C   0  0  0  0  0  0  0  0  0  0  0  0
   -2.7733  -20.6279   13.2574 O   0  0  0  0  0  0  0  0  0  0  0  0
   -4.2618  -21.1958   11.4007 C   0  0  0  0  0  0  0  0  0  0  0  0
   -3.8660  -20.9296    9.8420 C   0  0  0  0  0  0  0  0  0  0  0  0
   -3.7600  -22.2715    9.1282 C   0  0  0  0  0  0  0  0  0  0  0  0
   -3.7489  -23.2990   10.2160 C   0  0  0  0  0  0  0  0  0  0  0  0
   -4.4742  -22.7539   11.3062 O   0  0  0  0  0  0  0  0  0  0  0  0
    1.4106  -13.7529   16.8921 C   0  0  0  0  0  0  0  0  0  0  0  0
    2.0123  -14.8291   16.9113 O   0  0  0  0  0  0  0  0  0  0  0  0
    2.4025  -12.0705   16.2255 C   0  0  0  0  0  0  0  0  0  0  0  0
    3.8010  -11.5080   15.5481 C   0  0  0  0  0  0  0  0  0  0  0  0
    4.4056  -10.4010   16.1462 N   0  0  0  0  0  0  0  0  0  0  0  0
    5.2554   -9.4401   15.5886 C   0  0  0  0  0  0  0  0  0  0  0  0
    5.7345   -8.4531   16.3583 C   0  0  0  0  0  0  0  0  0  0  0  0
    5.3758   -8.5731   17.7984 C   0  0  0  0  0  0  0  0  0  0  0  0
    4.6225   -9.4896   18.3313 N   0  0  0  0  0  0  0  0  0  0  0  0
    4.0787  -10.4149   17.4695 C   0  0  0  0  0  0  0  0  0  0  0  0
    3.2166  -11.3972   17.6390 N   0  0  0  0  0  0  0  0  0  0  0  0
   -1.8716  -12.7196   17.5826 H   0  0  0  0  0  0  0  0  0  0  0  0
   -1.9860  -14.5646   18.1589 H   0  0  0  0  0  0  0  0  0  0  0  0
   -2.8832  -13.5749   17.7234 H   0  0  0  0  0  0  0  0  0  0  0  0
   -1.3359  -14.1006   15.2806 H   0  0  0  0  0  0  0  0  0  0  0  0
   -1.4511  -15.1544   16.1688 H   0  0  0  0  0  0  0  0  0  0  0  0
   -3.7205  -14.7908   14.8177 H   0  0  0  0  0  0  0  0  0  0  0  0
   -4.5068  -16.0999   17.0505 H   0  0  0  0  0  0  0  0  0  0  0  0
   -2.9038  -17.3671   14.5021 H   0  0  0  0  0  0  0  0  0  0  0  0
   -4.7161  -16.5576   14.6465 H   0  0  0  0  0  0  0  0  0  0  0  0
   -5.4922  -18.4748   13.0554 H   0  0  0  0  0  0  0  0  0  0  0  0
   -3.2073  -21.4772   11.5186 H   0  0  0  0  0  0  0  0  0  0  0  0
   -2.9118  -20.4706    9.6772 H   0  0  0  0  0  0  0  0  0  0  0  0
   -4.4931  -20.2631    9.2696 H   0  0  0  0  0  0  0  0  0  0  0  0
   -4.6009  -22.4262    8.4489 H   0  0  0  0  0  0  0  0  0  0  0  0
   -2.8597  -22.3409    8.5078 H   0  0  0  0  0  0  0  0  0  0  0  0
   -2.7281  -23.5141   10.5498 H   0  0  0  0  0  0  0  0  0  0  0  0
   -4.2065  -24.2421    9.9043 H   0  0  0  0  0  0  0  0  0  0  0  0
    4.4345  -11.8938   14.7688 H   0  0  0  0  0  0  0  0  0  0  0  0
    5.4429   -9.5084   14.5253 H   0  0  0  0  0  0  0  0  0  0  0  0
    6.3377   -7.6328   16.0037 H   0  0  0  0  0  0  0  0  0  0  0  0
    5.8134   -7.8028   18.4546 H   0  0  0  0  0  0  0  0  0  0  0  0
  1  2  1  0
  2  3  1  0
  3  4  1  0
  4  5  1  0
  4  6  1  0
  6  7  1  0
  7  8  1  0
  8  9  2  0
  8 10  1  0
 10 11  1  0
 11 12  1  0
 12 13  1  0
 13 14  1  0
  2 15  1  0
 15 16  2  0
 15 17  1  0
 17 18  2  0
 18 19  1  0
 19 20  1  0
 20 21  2  0
 21 22  1  0
 22 23  2  0
 23 24  1  0
 24 25  2  0
 14 10  1  0
 25 17  1  0
 24 19  1  0
  1 26  1  0
  1 27  1  0
  1 28  1  0
  3 29  1  0
  3 30  1  0
  4 31  1  0
  5 32  1  0
  6 33  1  0
  6 34  1  0
  7 35  1  0
 10 36  1  0
 11 37  1  0
 11 38  1  0
 12 39  1  0
 12 40  1  0
 13 41  1  0
 13 42  1  0
 18 43  1  0
 20 44  1  0
 21 45  1  0
 22 46  1  0
M  END
>  <Energy>  (631) 
1601.4678628912336

>  <compound_id>  (631) 
13911

>  <target_id>  (631) 
1

>  <reference_id>  (631) 
106

>  <inspiration_ids>  (631) 
[106, 28]

>  <energy_score>  (631) 
1452.082429712395

>  <distance_score>  (631) 
12.902260621333292

>  <path>  (631) 
/opt/xchem-fragalysis-2/maxwin/BulkDock/SCRATCH/511017/C13911-P106/C13911-P106.minimised.mol

>  <scratch_subdir>  (631) 
/opt/xchem-fragalysis-2/maxwin/BulkDock/SCRATCH/511017/C13911-P106

>  <fragmenstein_runtime>  (631) 
11.302459239959717

>  <fragmenstein_outcome>  (631) 
too moved

>  <fragmenstein_mode>  (631) 
expansion

>  <fragmenstein_error>  (631) 


$$$$
C13911-P28
     RDKit          3D

 46 48  0  0  0  0  0  0  0  0999 V2000
    4.6299  -15.4289    8.2495 C   0  0  0  0  0  0  0  0  0  0  0  0
    4.0029  -13.6927    7.9642 N   0  0  0  0  0  0  0  0  0  0  0  0
    3.7531  -15.1259    8.1021 C   0  0  0  0  0  0  0  0  0  0  0  0
    2.3604  -16.2452    7.6257 C   0  0  0  0  0  0  0  0  0  0  0  0
    2.7660  -16.8962    6.3983 O   0  0  0  0  0  0  0  0  0  0  0  0
    2.0070  -17.3595    8.6320 C   0  0  0  0  0  0  0  0  0  0  0  0
    1.1125  -18.3981    8.0787 N   0  0  0  0  0  0  0  0  0  0  0  0
   -0.1985  -18.2969    7.4686 C   0  0  0  0  0  0  0  0  0  0  0  0
   -0.8567  -17.3340    7.1854 O   0  0  0  0  0  0  0  0  0  0  0  0
   -0.7695  -19.7305    7.0364 C   0  0  0  0  0  0  0  0  0  0  0  0
   -0.7187  -20.9015    8.0252 C   0  0  0  0  0  0  0  0  0  0  0  0
   -2.1641  -21.3262    8.2363 C   0  0  0  0  0  0  0  0  0  0  0  0
   -2.9517  -20.1592    7.7048 C   0  0  0  0  0  0  0  0  0  0  0  0
   -2.1561  -19.6678    6.6231 O   0  0  0  0  0  0  0  0  0  0  0  0
    5.1400  -12.8337    7.9565 C   0  0  0  0  0  0  0  0  0  0  0  0
    5.7271  -12.5721    6.9124 O   0  0  0  0  0  0  0  0  0  0  0  0
    5.6346  -12.0889    9.1803 C   0  0  0  0  0  0  0  0  0  0  0  0
    4.9248  -11.1603    9.9369 C   0  0  0  0  0  0  0  0  0  0  0  0
    5.8515  -10.2762   10.4709 N   0  0  0  0  0  0  0  0  0  0  0  0
    5.6675   -9.0806   11.1686 C   0  0  0  0  0  0  0  0  0  0  0  0
    6.7237   -8.3008   11.4432 C   0  0  0  0  0  0  0  0  0  0  0  0
    8.0222   -8.8210   10.9445 C   0  0  0  0  0  0  0  0  0  0  0  0
    8.2292   -9.9710   10.3805 N   0  0  0  0  0  0  0  0  0  0  0  0
    7.1154  -10.7208   10.1028 C   0  0  0  0  0  0  0  0  0  0  0  0
    7.0058  -11.8393    9.4061 N   0  0  0  0  0  0  0  0  0  0  0  0
    4.7363  -15.9316    9.3477 H   0  0  0  0  0  0  0  0  0  0  0  0
    5.1114  -16.0298    7.3229 H   0  0  0  0  0  0  0  0  0  0  0  0
    5.7199  -15.0518    8.4385 H   0  0  0  0  0  0  0  0  0  0  0  0
    3.4472  -14.8723    6.9663 H   0  0  0  0  0  0  0  0  0  0  0  0
    2.9874  -14.8402    8.9400 H   0  0  0  0  0  0  0  0  0  0  0  0
    1.4997  -15.6092    7.3950 H   0  0  0  0  0  0  0  0  0  0  0  0
    1.9511  -17.3100    6.0551 H   0  0  0  0  0  0  0  0  0  0  0  0
    1.5245  -16.9351    9.5172 H   0  0  0  0  0  0  0  0  0  0  0  0
    2.9162  -17.8847    8.9413 H   0  0  0  0  0  0  0  0  0  0  0  0
    1.3241  -19.3727    8.2461 H   0  0  0  0  0  0  0  0  0  0  0  0
   -0.1949  -19.9908    6.1381 H   0  0  0  0  0  0  0  0  0  0  0  0
   -0.2088  -20.6692    8.9601 H   0  0  0  0  0  0  0  0  0  0  0  0
   -0.1538  -21.7348    7.5892 H   0  0  0  0  0  0  0  0  0  0  0  0
   -2.4090  -21.5796    9.2696 H   0  0  0  0  0  0  0  0  0  0  0  0
   -2.3654  -22.2142    7.6248 H   0  0  0  0  0  0  0  0  0  0  0  0
   -3.9310  -20.4500    7.3241 H   0  0  0  0  0  0  0  0  0  0  0  0
   -3.0803  -19.3605    8.4383 H   0  0  0  0  0  0  0  0  0  0  0  0
    3.8670  -10.9459    9.9755 H   0  0  0  0  0  0  0  0  0  0  0  0
    4.6513   -8.8145   11.4297 H   0  0  0  0  0  0  0  0  0  0  0  0
    6.6754   -7.3516   11.9479 H   0  0  0  0  0  0  0  0  0  0  0  0
    8.8744   -8.1461   11.0685 H   0  0  0  0  0  0  0  0  0  0  0  0
  1  2  1  0
  2  3  1  0
  3  4  1  0
  4  5  1  0
  4  6  1  0
  6  7  1  0
  7  8  1  0
  8  9  2  0
  8 10  1  0
 10 11  1  0
 11 12  1  0
 12 13  1  0
 13 14  1  0
  2 15  1  0
 15 16  2  0
 15 17  1  0
 17 18  2  0
 18 19  1  0
 19 20  1  0
 20 21  2  0
 21 22  1  0
 22 23  2  0
 23 24  1  0
 24 25  2  0
 14 10  1  0
 25 17  1  0
 24 19  1  0
  1 26  1  0
  1 27  1  0
  1 28  1  0
  3 29  1  0
  3 30  1  0
  4 31  1  0
  5 32  1  0
  6 33  1  0
  6 34  1  0
  7 35  1  0
 10 36  1  0
 11 37  1  0
 11 38  1  0
 12 39  1  0
 12 40  1  0
 13 41  1  0
 13 42  1  0
 18 43  1  0
 20 44  1  0
 21 45  1  0
 22 46  1  0
M  END
>  <Energy>  (632) 
701.21026753623551

>  <compound_id>  (632) 
13911

>  <target_id>  (632) 
1

>  <reference_id>  (632) 
28

>  <inspiration_ids>  (632) 
[106, 28]

>  <energy_score>  (632) 
551.824834357404

>  <distance_score>  (632) 
14.824701910386452

>  <path>  (632) 
/opt/xchem-fragalysis-2/maxwin/BulkDock/SCRATCH/511017/C13911-P28/C13911-P28.minimised.mol

>  <scratch_subdir>  (632) 
/opt/xchem-fragalysis-2/maxwin/BulkDock/SCRATCH/511017/C13911-P28

>  <fragmenstein_runtime>  (632) 
21.36288094520569

>  <fragmenstein_outcome>  (632) 
too moved

>  <fragmenstein_mode>  (632) 
expansion

>  <fragmenstein_error>  (632) 


$$$$
C13912-P106
     RDKit          3D

 42 45  0  0  0  0  0  0  0  0999 V2000
   -2.3569  -15.1272   19.0220 O   0  0  0  0  0  0  0  0  0  0  0  0
   -3.0655  -14.1696   19.1540 C   0  0  0  0  0  0  0  0  0  0  0  0
   -4.6094  -14.3384   19.2107 C   0  0  0  0  0  0  0  0  0  0  0  0
   -5.1671  -15.7161   18.7648 C   0  0  0  0  0  0  0  0  0  0  0  0
   -6.6515  -15.6499   18.3708 C   0  0  0  0  0  0  0  0  0  0  0  0
   -7.2924  -16.8956   18.9585 C   0  0  0  0  0  0  0  0  0  0  0  0
   -6.1345  -17.6661   19.5479 C   0  0  0  0  0  0  0  0  0  0  0  0
   -5.1396  -16.6767   19.8385 O   0  0  0  0  0  0  0  0  0  0  0  0
   -2.7357  -12.7430   19.2673 N   0  0  0  0  0  0  0  0  0  0  0  0
   -1.4966  -12.0657   19.1616 C   0  0  0  0  0  0  0  0  0  0  0  0
   -0.2564  -12.6834   19.0144 C   0  0  0  0  0  0  0  0  0  0  0  0
    0.9330  -11.9023   18.8020 C   0  0  0  0  0  0  0  0  0  0  0  0
    0.9193  -10.4818   18.7488 C   0  0  0  0  0  0  0  0  0  0  0  0
    2.0728   -9.5812   18.3957 C   0  0  0  0  0  0  0  0  0  0  0  0
    3.4020   -9.8883   18.1485 C   0  0  0  0  0  0  0  0  0  0  0  0
    4.0043   -8.7140   17.7182 N   0  0  0  0  0  0  0  0  0  0  0  0
    5.2875   -8.4694   17.2263 C   0  0  0  0  0  0  0  0  0  0  0  0
    5.5818   -7.2545   16.7368 C   0  0  0  0  0  0  0  0  0  0  0  0
    4.4809   -6.2608   16.8035 C   0  0  0  0  0  0  0  0  0  0  0  0
    3.3046   -6.4479   17.3123 N   0  0  0  0  0  0  0  0  0  0  0  0
    3.0365   -7.7136   17.7585 C   0  0  0  0  0  0  0  0  0  0  0  0
    1.8933   -8.2152   18.1854 N   0  0  0  0  0  0  0  0  0  0  0  0
   -0.3404   -9.8936   18.9604 C   0  0  0  0  0  0  0  0  0  0  0  0
   -1.5155  -10.6627   19.1596 C   0  0  0  0  0  0  0  0  0  0  0  0
   -4.9160  -14.1304   20.2426 H   0  0  0  0  0  0  0  0  0  0  0  0
   -5.0360  -13.5713   18.5529 H   0  0  0  0  0  0  0  0  0  0  0  0
   -4.5734  -16.1233   17.9381 H   0  0  0  0  0  0  0  0  0  0  0  0
   -6.7786  -15.5832   17.2868 H   0  0  0  0  0  0  0  0  0  0  0  0
   -7.1369  -14.7608   18.7910 H   0  0  0  0  0  0  0  0  0  0  0  0
   -7.8750  -17.4788   18.2404 H   0  0  0  0  0  0  0  0  0  0  0  0
   -7.9810  -16.5983   19.7587 H   0  0  0  0  0  0  0  0  0  0  0  0
   -6.4079  -18.1913   20.4674 H   0  0  0  0  0  0  0  0  0  0  0  0
   -5.7097  -18.3940   18.8506 H   0  0  0  0  0  0  0  0  0  0  0  0
   -3.5923  -12.2048   19.2849 H   0  0  0  0  0  0  0  0  0  0  0  0
   -0.1689  -13.7638   19.0530 H   0  0  0  0  0  0  0  0  0  0  0  0
    1.8696  -12.4365   18.6511 H   0  0  0  0  0  0  0  0  0  0  0  0
    3.9486  -10.8189   18.1794 H   0  0  0  0  0  0  0  0  0  0  0  0
    5.9795   -9.3015   17.2122 H   0  0  0  0  0  0  0  0  0  0  0  0
    6.5082   -6.9720   16.2676 H   0  0  0  0  0  0  0  0  0  0  0  0
    4.6957   -5.2842   16.3494 H   0  0  0  0  0  0  0  0  0  0  0  0
   -0.4339   -8.8069   18.9409 H   0  0  0  0  0  0  0  0  0  0  0  0
   -2.4534  -10.1268   19.2900 H   0  0  0  0  0  0  0  0  0  0  0  0
  1  2  2  0
  2  3  1  0
  3  4  1  0
  4  5  1  0
  5  6  1  0
  6  7  1  0
  7  8  1  0
  2  9  1  0
  9 10  1  0
 10 11  2  0
 11 12  1  0
 12 13  2  0
 13 14  1  0
 14 15  2  0
 15 16  1  0
 16 17  1  0
 17 18  2  0
 18 19  1  0
 19 20  2  0
 20 21  1  0
 21 22  2  0
 13 23  1  0
 23 24  2  0
  8  4  1  0
 24 10  1  0
 22 14  1  0
 21 16  1  0
  3 25  1  0
  3 26  1  0
  4 27  1  0
  5 28  1  0
  5 29  1  0
  6 30  1  0
  6 31  1  0
  7 32  1  0
  7 33  1  0
  9 34  1  0
 11 35  1  0
 12 36  1  0
 15 37  1  0
 17 38  1  0
 18 39  1  0
 19 40  1  0
 23 41  1  0
 24 42  1  0
M  END
>  <Energy>  (633) 
48.099766197877713

>  <compound_id>  (633) 
13912

>  <target_id>  (633) 
1

>  <reference_id>  (633) 
106

>  <inspiration_ids>  (633) 
[106, 28]

>  <energy_score>  (633) 
-19.290061848974517

>  <distance_score>  (633) 
14.563229442549135

>  <path>  (633) 
/opt/xchem-fragalysis-2/maxwin/BulkDock/SCRATCH/511017/C13912-P106/C13912-P106.minimised.mol

>  <scratch_subdir>  (633) 
/opt/xchem-fragalysis-2/maxwin/BulkDock/SCRATCH/511017/C13912-P106

>  <fragmenstein_runtime>  (633) 
18.748160362243652

>  <fragmenstein_outcome>  (633) 
too moved

>  <fragmenstein_mode>  (633) 
expansion

>  <fragmenstein_error>  (633) 


$$$$
C13912-P28
     RDKit          3D

 42 45  0  0  0  0  0  0  0  0999 V2000
   -3.5205  -19.9223   11.3350 O   0  0  0  0  0  0  0  0  0  0  0  0
   -3.0946  -20.2803   12.4331 C   0  0  0  0  0  0  0  0  0  0  0  0
   -4.1053  -20.9409   13.1016 C   0  0  0  0  0  0  0  0  0  0  0  0
   -5.7817  -21.2388   12.2119 C   0  0  0  0  0  0  0  0  0  0  0  0
   -6.6235  -20.1239   11.6635 C   0  0  0  0  0  0  0  0  0  0  0  0
   -8.0594  -20.6262   11.6942 C   0  0  0  0  0  0  0  0  0  0  0  0
   -7.9705  -21.9829   12.4170 C   0  0  0  0  0  0  0  0  0  0  0  0
   -6.5953  -22.4697   12.0297 O   0  0  0  0  0  0  0  0  0  0  0  0
   -1.2185  -19.7808   13.0877 N   0  0  0  0  0  0  0  0  0  0  0  0
    0.2135  -18.8599   12.1716 C   0  0  0  0  0  0  0  0  0  0  0  0
    1.5200  -18.5183   11.9210 C   0  0  0  0  0  0  0  0  0  0  0  0
    1.9185  -16.8913   11.3220 C   0  0  0  0  0  0  0  0  0  0  0  0
    0.9438  -15.5611   11.4707 C   0  0  0  0  0  0  0  0  0  0  0  0
    0.8793  -13.7885   11.9579 C   0  0  0  0  0  0  0  0  0  0  0  0
    1.6509  -12.8645   12.6712 C   0  0  0  0  0  0  0  0  0  0  0  0
    1.3921  -11.5407   12.4938 N   0  0  0  0  0  0  0  0  0  0  0  0
    2.1261  -10.4127   12.8768 C   0  0  0  0  0  0  0  0  0  0  0  0
    1.6328   -9.1977   12.6168 C   0  0  0  0  0  0  0  0  0  0  0  0
    0.3061   -9.2509   11.9377 C   0  0  0  0  0  0  0  0  0  0  0  0
   -0.3634  -10.3175   11.5938 N   0  0  0  0  0  0  0  0  0  0  0  0
    0.1906  -11.5447   11.8895 C   0  0  0  0  0  0  0  0  0  0  0  0
   -0.1441  -12.8411   11.6286 N   0  0  0  0  0  0  0  0  0  0  0  0
   -0.1572  -16.0934   11.0522 C   0  0  0  0  0  0  0  0  0  0  0  0
   -0.1715  -17.5797   11.2165 C   0  0  0  0  0  0  0  0  0  0  0  0
   -4.5541  -19.9409   13.0038 H   0  0  0  0  0  0  0  0  0  0  0  0
   -3.8195  -21.7622   12.4885 H   0  0  0  0  0  0  0  0  0  0  0  0
   -6.2591  -21.2363   13.1459 H   0  0  0  0  0  0  0  0  0  0  0  0
   -6.3778  -19.9855   10.6413 H   0  0  0  0  0  0  0  0  0  0  0  0
   -6.4596  -19.1812   12.1785 H   0  0  0  0  0  0  0  0  0  0  0  0
   -8.8000  -19.9118   12.0378 H   0  0  0  0  0  0  0  0  0  0  0  0
   -8.4187  -20.6725   10.6725 H   0  0  0  0  0  0  0  0  0  0  0  0
   -7.9810  -21.9480   13.5094 H   0  0  0  0  0  0  0  0  0  0  0  0
   -8.7787  -22.6885   12.2022 H   0  0  0  0  0  0  0  0  0  0  0  0
   -1.0382  -20.2253   13.9409 H   0  0  0  0  0  0  0  0  0  0  0  0
    2.3799  -19.1032   12.2330 H   0  0  0  0  0  0  0  0  0  0  0  0
    3.0087  -16.7725   11.2853 H   0  0  0  0  0  0  0  0  0  0  0  0
    2.4094  -12.8382   13.3735 H   0  0  0  0  0  0  0  0  0  0  0  0
    3.0778  -10.5757   13.3648 H   0  0  0  0  0  0  0  0  0  0  0  0
    2.1006   -8.2549   12.8526 H   0  0  0  0  0  0  0  0  0  0  0  0
   -0.1364   -8.2668   11.7093 H   0  0  0  0  0  0  0  0  0  0  0  0
   -1.0363  -15.5003   10.8521 H   0  0  0  0  0  0  0  0  0  0  0  0
    0.3420  -17.8148   10.2006 H   0  0  0  0  0  0  0  0  0  0  0  0
  1  2  2  0
  2  3  1  0
  3  4  1  0
  4  5  1  0
  5  6  1  0
  6  7  1  0
  7  8  1  0
  2  9  1  0
  9 10  1  0
 10 11  2  0
 11 12  1  0
 12 13  2  0
 13 14  1  0
 14 15  2  0
 15 16  1  0
 16 17  1  0
 17 18  2  0
 18 19  1  0
 19 20  2  0
 20 21  1  0
 21 22  2  0
 13 23  1  0
 23 24  2  0
  8  4  1  0
 24 10  1  0
 22 14  1  0
 21 16  1  0
  3 25  1  0
  3 26  1  0
  4 27  1  0
  5 28  1  0
  5 29  1  0
  6 30  1  0
  6 31  1  0
  7 32  1  0
  7 33  1  0
  9 34  1  0
 11 35  1  0
 12 36  1  0
 15 37  1  0
 17 38  1  0
 18 39  1  0
 19 40  1  0
 23 41  1  0
 24 42  1  0
M  END
>  <Energy>  (634) 
798.85616553516331

>  <compound_id>  (634) 
13912

>  <target_id>  (634) 
1

>  <reference_id>  (634) 
28

>  <inspiration_ids>  (634) 
[106, 28]

>  <energy_score>  (634) 
731.4663374883207

>  <distance_score>  (634) 
13.904076171178286

>  <path>  (634) 
/opt/xchem-fragalysis-2/maxwin/BulkDock/SCRATCH/511017/C13912-P28/C13912-P28.minimised.mol

>  <scratch_subdir>  (634) 
/opt/xchem-fragalysis-2/maxwin/BulkDock/SCRATCH/511017/C13912-P28

>  <fragmenstein_runtime>  (634) 
12.082072257995605

>  <fragmenstein_outcome>  (634) 
too moved

>  <fragmenstein_mode>  (634) 
expansion

>  <fragmenstein_error>  (634) 


$$$$
C13913-P106
     RDKit          3D

 38 41  0  0  0  0  0  0  0  0999 V2000
   -8.6360  -13.4293    8.4999 N   0  0  0  0  0  0  0  0  0  0  0  0
   -7.4621  -13.2455    9.3507 C   0  0  0  0  0  0  0  0  0  0  0  0
   -7.1018  -12.2936    9.9882 O   0  0  0  0  0  0  0  0  0  0  0  0
   -6.5218  -14.4640    9.3066 C   0  0  0  0  0  0  0  0  0  0  0  0
   -6.3481  -15.1307   10.5978 N   0  0  0  0  0  0  0  0  0  0  0  0
   -6.7426  -16.7672   10.8450 N   0  0  0  0  0  0  0  0  0  0  0  0
   -6.6603  -17.5229   12.0463 C   0  0  0  0  0  0  0  0  0  0  0  0
   -7.1645  -19.4246   11.8019 C   0  0  0  0  0  0  0  0  0  0  0  0
   -7.0847  -20.9060   12.6631 C   0  0  0  0  0  0  0  0  0  0  0  0
   -8.2135  -21.9077   12.1431 C   0  0  0  0  0  0  0  0  0  0  0  0
   -9.0337  -21.0519   11.2289 C   0  0  0  0  0  0  0  0  0  0  0  0
   -8.2762  -19.9338   10.7278 O   0  0  0  0  0  0  0  0  0  0  0  0
   -5.8678  -16.4002   12.9032 N   0  0  0  0  0  0  0  0  0  0  0  0
   -5.2310  -15.1639   11.9356 C   0  0  0  0  0  0  0  0  0  0  0  0
   -3.3075  -15.1166   11.2700 C   0  0  0  0  0  0  0  0  0  0  0  0
   -2.9728  -15.1983    9.8248 C   0  0  0  0  0  0  0  0  0  0  0  0
   -1.9472  -16.0338    9.5466 N   0  0  0  0  0  0  0  0  0  0  0  0
   -0.9927  -15.7790   10.4271 C   0  0  0  0  0  0  0  0  0  0  0  0
    0.2867  -16.2967   10.4520 N   0  0  0  0  0  0  0  0  0  0  0  0
    1.1824  -15.7257   11.1800 C   0  0  0  0  0  0  0  0  0  0  0  0
    0.9544  -14.5264   11.9774 C   0  0  0  0  0  0  0  0  0  0  0  0
   -0.3483  -14.3040   12.1879 C   0  0  0  0  0  0  0  0  0  0  0  0
   -1.5327  -14.8649   11.3448 N   0  0  0  0  0  0  0  0  0  0  0  0
   -8.6861  -14.4222    8.2009 H   0  0  0  0  0  0  0  0  0  0  0  0
   -8.5626  -14.3428    8.0136 H   0  0  0  0  0  0  0  0  0  0  0  0
   -5.5695  -14.1321    8.8954 H   0  0  0  0  0  0  0  0  0  0  0  0
   -6.8934  -15.2275    8.6176 H   0  0  0  0  0  0  0  0  0  0  0  0
   -8.1401  -19.1879   12.1725 H   0  0  0  0  0  0  0  0  0  0  0  0
   -6.0441  -21.1759   12.6903 H   0  0  0  0  0  0  0  0  0  0  0  0
   -7.2160  -21.1186   13.7029 H   0  0  0  0  0  0  0  0  0  0  0  0
   -8.8443  -22.2940   12.9580 H   0  0  0  0  0  0  0  0  0  0  0  0
   -7.8802  -22.8329   11.6668 H   0  0  0  0  0  0  0  0  0  0  0  0
   -9.8525  -20.6465   11.8185 H   0  0  0  0  0  0  0  0  0  0  0  0
   -9.4469  -21.6223   10.3928 H   0  0  0  0  0  0  0  0  0  0  0  0
   -3.6312  -15.0004    8.9890 H   0  0  0  0  0  0  0  0  0  0  0  0
    2.2008  -16.1454   11.2152 H   0  0  0  0  0  0  0  0  0  0  0  0
    1.7698  -14.1069   12.5353 H   0  0  0  0  0  0  0  0  0  0  0  0
   -0.5285  -13.8693   13.1639 H   0  0  0  0  0  0  0  0  0  0  0  0
  1  2  1  0
  2  3  2  0
  2  4  1  0
  4  5  1  0
  5  6  1  0
  6  7  2  0
  7  8  1  0
  8  9  1  0
  9 10  1  0
 10 11  1  0
 11 12  1  0
  7 13  1  0
 13 14  2  0
 14 15  1  0
 15 16  2  0
 16 17  1  0
 17 18  2  0
 18 19  1  0
 19 20  2  0
 20 21  1  0
 21 22  2  0
 22 23  1  0
 14  5  1  0
 23 15  1  0
 12  8  1  0
 23 18  1  0
  1 24  1  0
  1 25  1  0
  4 26  1  0
  4 27  1  0
  8 28  1  0
  9 29  1  0
  9 30  1  0
 10 31  1  0
 10 32  1  0
 11 33  1  0
 11 34  1  0
 16 35  1  0
 20 36  1  0
 21 37  1  0
 22 38  1  0
M  END
>  <Energy>  (635) 
879.88544880019867

>  <compound_id>  (635) 
13913

>  <target_id>  (635) 
1

>  <reference_id>  (635) 
106

>  <inspiration_ids>  (635) 
[106, 28]

>  <energy_score>  (635) 
762.8312210473819

>  <distance_score>  (635) 
16.328833339561186

>  <path>  (635) 
/opt/xchem-fragalysis-2/maxwin/BulkDock/SCRATCH/511017/C13913-P106/C13913-P106.minimised.mol

>  <scratch_subdir>  (635) 
/opt/xchem-fragalysis-2/maxwin/BulkDock/SCRATCH/511017/C13913-P106

>  <fragmenstein_runtime>  (635) 
11.94829249382019

>  <fragmenstein_outcome>  (635) 
too moved

>  <fragmenstein_mode>  (635) 
expansion

>  <fragmenstein_error>  (635) 


$$$$
C13913-P28
     RDKit          3D

 38 41  0  0  0  0  0  0  0  0999 V2000
   -3.2456  -23.6739   12.9112 N   0  0  0  0  0  0  0  0  0  0  0  0
   -2.2391  -23.1665   13.8302 C   0  0  0  0  0  0  0  0  0  0  0  0
   -1.4949  -23.8201   14.5312 O   0  0  0  0  0  0  0  0  0  0  0  0
   -1.8265  -21.0001   13.9103 C   0  0  0  0  0  0  0  0  0  0  0  0
   -0.3030  -20.6365   12.3726 N   0  0  0  0  0  0  0  0  0  0  0  0
   -1.4800  -22.3453   11.4316 N   0  0  0  0  0  0  0  0  0  0  0  0
   -2.7936  -20.8239   12.0488 C   0  0  0  0  0  0  0  0  0  0  0  0
   -4.4417  -20.5615   11.8358 C   0  0  0  0  0  0  0  0  0  0  0  0
   -5.0513  -21.0248   10.5470 C   0  0  0  0  0  0  0  0  0  0  0  0
   -5.3075  -22.5273   10.7066 C   0  0  0  0  0  0  0  0  0  0  0  0
   -6.1856  -22.2921   11.9118 C   0  0  0  0  0  0  0  0  0  0  0  0
   -5.5264  -21.1759   12.5488 O   0  0  0  0  0  0  0  0  0  0  0  0
   -1.1379  -19.7515   12.8714 N   0  0  0  0  0  0  0  0  0  0  0  0
    0.2290  -19.4634   12.1923 C   0  0  0  0  0  0  0  0  0  0  0  0
    1.6740  -19.1876   12.4585 C   0  0  0  0  0  0  0  0  0  0  0  0
    2.5027  -19.6147   13.4954 C   0  0  0  0  0  0  0  0  0  0  0  0
    3.8098  -19.1513   13.4154 N   0  0  0  0  0  0  0  0  0  0  0  0
    3.8523  -18.3363   12.3833 C   0  0  0  0  0  0  0  0  0  0  0  0
    4.8548  -17.4392   12.0599 N   0  0  0  0  0  0  0  0  0  0  0  0
    4.5734  -16.5875   11.1258 C   0  0  0  0  0  0  0  0  0  0  0  0
    3.3221  -16.5505   10.3219 C   0  0  0  0  0  0  0  0  0  0  0  0
    2.3875  -17.4715   10.6308 C   0  0  0  0  0  0  0  0  0  0  0  0
    2.5982  -18.3700   11.6958 N   0  0  0  0  0  0  0  0  0  0  0  0
   -3.6195  -22.8976   12.3950 H   0  0  0  0  0  0  0  0  0  0  0  0
   -3.7848  -22.8832   12.5617 H   0  0  0  0  0  0  0  0  0  0  0  0
   -1.8264  -19.9787   14.3559 H   0  0  0  0  0  0  0  0  0  0  0  0
   -2.9317  -21.0232   13.7472 H   0  0  0  0  0  0  0  0  0  0  0  0
   -4.5614  -19.5599   12.1731 H   0  0  0  0  0  0  0  0  0  0  0  0
   -6.0041  -20.4662   10.6236 H   0  0  0  0  0  0  0  0  0  0  0  0
   -4.6583  -20.7673    9.5701 H   0  0  0  0  0  0  0  0  0  0  0  0
   -5.6502  -23.0379    9.7970 H   0  0  0  0  0  0  0  0  0  0  0  0
   -4.5127  -23.2363   10.8993 H   0  0  0  0  0  0  0  0  0  0  0  0
   -7.1951  -21.8781   11.8721 H   0  0  0  0  0  0  0  0  0  0  0  0
   -6.3402  -23.2306   12.4455 H   0  0  0  0  0  0  0  0  0  0  0  0
    2.2078  -20.2466   14.3239 H   0  0  0  0  0  0  0  0  0  0  0  0
    5.3258  -15.8301   10.8518 H   0  0  0  0  0  0  0  0  0  0  0  0
    3.2078  -15.8110    9.5439 H   0  0  0  0  0  0  0  0  0  0  0  0
    1.4188  -17.5184   10.1494 H   0  0  0  0  0  0  0  0  0  0  0  0
  1  2  1  0
  2  3  2  0
  2  4  1  0
  4  5  1  0
  5  6  1  0
  6  7  2  0
  7  8  1  0
  8  9  1  0
  9 10  1  0
 10 11  1  0
 11 12  1  0
  7 13  1  0
 13 14  2  0
 14 15  1  0
 15 16  2  0
 16 17  1  0
 17 18  2  0
 18 19  1  0
 19 20  2  0
 20 21  1  0
 21 22  2  0
 22 23  1  0
 14  5  1  0
 23 15  1  0
 12  8  1  0
 23 18  1  0
  1 24  1  0
  1 25  1  0
  4 26  1  0
  4 27  1  0
  8 28  1  0
  9 29  1  0
  9 30  1  0
 10 31  1  0
 10 32  1  0
 11 33  1  0
 11 34  1  0
 16 35  1  0
 20 36  1  0
 21 37  1  0
 22 38  1  0
M  END
>  <Energy>  (636) 
1924.4544606756474

>  <compound_id>  (636) 
13913

>  <target_id>  (636) 
1

>  <reference_id>  (636) 
28

>  <inspiration_ids>  (636) 
[106, 28]

>  <energy_score>  (636) 
1807.4002329228467

>  <distance_score>  (636) 
15.38927992962838

>  <path>  (636) 
/opt/xchem-fragalysis-2/maxwin/BulkDock/SCRATCH/511017/C13913-P28/C13913-P28.minimised.mol

>  <scratch_subdir>  (636) 
/opt/xchem-fragalysis-2/maxwin/BulkDock/SCRATCH/511017/C13913-P28

>  <fragmenstein_runtime>  (636) 
7.084883451461792

>  <fragmenstein_outcome>  (636) 
too moved

>  <fragmenstein_mode>  (636) 
expansion

>  <fragmenstein_error>  (636) 


$$$$
C13914-P106
     RDKit          3D

 41 44  0  0  0  0  0  0  0  0999 V2000
    1.4958  -15.5299   10.3866 O   0  0  0  0  0  0  0  0  0  0  0  0
    0.8477  -15.8729   11.3013 C   0  0  0  0  0  0  0  0  0  0  0  0
    0.5212  -14.9802   12.8200 N   0  0  0  0  0  0  0  0  0  0  0  0
    1.1324  -13.5061   13.4057 C   0  0  0  0  0  0  0  0  0  0  0  0
    1.2353  -12.4490   14.4778 C   0  0  0  0  0  0  0  0  0  0  0  0
    1.6747  -12.4120   16.0744 N   0  0  0  0  0  0  0  0  0  0  0  0
    3.1061  -11.5171   16.5397 C   0  0  0  0  0  0  0  0  0  0  0  0
    3.4423  -10.2837   16.9333 N   0  0  0  0  0  0  0  0  0  0  0  0
    3.9907   -9.6742   15.7583 C   0  0  0  0  0  0  0  0  0  0  0  0
    4.1019  -10.6348   14.7526 C   0  0  0  0  0  0  0  0  0  0  0  0
    3.5564  -11.8698   15.3530 N   0  0  0  0  0  0  0  0  0  0  0  0
    2.2902  -13.2627   14.7206 C   0  0  0  0  0  0  0  0  0  0  0  0
    0.2003  -17.1873   11.5282 N   0  0  0  0  0  0  0  0  0  0  0  0
    0.2616  -18.5225   10.7076 C   0  0  0  0  0  0  0  0  0  0  0  0
   -0.6602  -19.7091   11.1928 C   0  0  0  0  0  0  0  0  0  0  0  0
   -0.2439  -21.1432   10.9299 C   0  0  0  0  0  0  0  0  0  0  0  0
   -1.2301  -21.9120   11.7943 C   0  0  0  0  0  0  0  0  0  0  0  0
   -1.5833  -20.9336   12.9029 C   0  0  0  0  0  0  0  0  0  0  0  0
   -0.8611  -19.7087   12.6215 O   0  0  0  0  0  0  0  0  0  0  0  0
    0.0654  -18.2976    9.1766 C   0  0  0  0  0  0  0  0  0  0  0  0
    1.3531  -19.0991    8.9176 C   0  0  0  0  0  0  0  0  0  0  0  0
    1.7554  -18.8667   10.3826 C   0  0  0  0  0  0  0  0  0  0  0  0
   -0.1111  -15.4680   13.3597 H   0  0  0  0  0  0  0  0  0  0  0  0
    0.2919  -12.0215   14.1394 H   0  0  0  0  0  0  0  0  0  0  0  0
    4.2766   -8.6315   15.7524 H   0  0  0  0  0  0  0  0  0  0  0  0
    4.4789  -10.6067   13.7444 H   0  0  0  0  0  0  0  0  0  0  0  0
    3.8366  -13.1136   14.4235 H   0  0  0  0  0  0  0  0  0  0  0  0
   -0.1967  -17.1927   12.4185 H   0  0  0  0  0  0  0  0  0  0  0  0
   -1.6440  -19.6096   10.7095 H   0  0  0  0  0  0  0  0  0  0  0  0
   -0.3013  -21.4316    9.8775 H   0  0  0  0  0  0  0  0  0  0  0  0
    0.7695  -21.3420   11.2930 H   0  0  0  0  0  0  0  0  0  0  0  0
   -0.8042  -22.8422   12.1825 H   0  0  0  0  0  0  0  0  0  0  0  0
   -2.1290  -22.1778   11.2261 H   0  0  0  0  0  0  0  0  0  0  0  0
   -2.6530  -20.7188   12.8785 H   0  0  0  0  0  0  0  0  0  0  0  0
   -1.3001  -21.2924   13.8957 H   0  0  0  0  0  0  0  0  0  0  0  0
    0.1525  -17.2601    8.8465 H   0  0  0  0  0  0  0  0  0  0  0  0
   -0.8368  -18.7179    8.7225 H   0  0  0  0  0  0  0  0  0  0  0  0
    2.0293  -18.6674    8.1742 H   0  0  0  0  0  0  0  0  0  0  0  0
    1.1835  -20.1487    8.6593 H   0  0  0  0  0  0  0  0  0  0  0  0
    2.4609  -18.0353   10.4971 H   0  0  0  0  0  0  0  0  0  0  0  0
    2.1911  -19.7263   10.8973 H   0  0  0  0  0  0  0  0  0  0  0  0
  1  2  2  0
  2  3  1  0
  3  4  1  0
  4  5  1  0
  5  6  2  0
  6  7  1  0
  7  8  2  0
  8  9  1  0
  9 10  2  0
 10 11  1  0
 11 12  1  0
  2 13  1  0
 13 14  1  0
 14 15  1  0
 15 16  1  0
 16 17  1  0
 17 18  1  0
 18 19  1  0
 14 20  1  0
 20 21  1  0
 21 22  1  0
 12  4  2  0
 22 14  1  0
 11  7  1  0
 19 15  1  0
  3 23  1  0
  5 24  1  0
  9 25  1  0
 10 26  1  0
 12 27  1  0
 13 28  1  0
 15 29  1  0
 16 30  1  0
 16 31  1  0
 17 32  1  0
 17 33  1  0
 18 34  1  0
 18 35  1  0
 20 36  1  0
 20 37  1  0
 21 38  1  0
 21 39  1  0
 22 40  1  0
 22 41  1  0
M  END
>  <Energy>  (637) 
896.11346041341869

>  <compound_id>  (637) 
13914

>  <target_id>  (637) 
1

>  <reference_id>  (637) 
106

>  <inspiration_ids>  (637) 
[106, 28]

>  <energy_score>  (637) 
847.7122333280807

>  <distance_score>  (637) 
14.50290073225895

>  <path>  (637) 
/opt/xchem-fragalysis-2/maxwin/BulkDock/SCRATCH/511017/C13914-P106/C13914-P106.minimised.mol

>  <scratch_subdir>  (637) 
/opt/xchem-fragalysis-2/maxwin/BulkDock/SCRATCH/511017/C13914-P106

>  <fragmenstein_runtime>  (637) 
12.627684354782104

>  <fragmenstein_outcome>  (637) 
too moved

>  <fragmenstein_mode>  (637) 
expansion

>  <fragmenstein_error>  (637) 


$$$$
C13914-P28
     RDKit          3D

 41 44  0  0  0  0  0  0  0  0999 V2000
    3.7679  -13.1062    7.7976 O   0  0  0  0  0  0  0  0  0  0  0  0
    4.4429  -13.8494    8.4158 C   0  0  0  0  0  0  0  0  0  0  0  0
    5.7152  -13.5779    9.2362 N   0  0  0  0  0  0  0  0  0  0  0  0
    6.3595  -12.3777    9.5465 C   0  0  0  0  0  0  0  0  0  0  0  0
    7.6220  -12.3874   10.3992 C   0  0  0  0  0  0  0  0  0  0  0  0
    8.3967  -11.3901   10.7159 N   0  0  0  0  0  0  0  0  0  0  0  0
    8.0375  -10.1792   10.2054 C   0  0  0  0  0  0  0  0  0  0  0  0
    8.7041   -9.0422   10.2289 N   0  0  0  0  0  0  0  0  0  0  0  0
    7.9125   -8.1300    9.5925 C   0  0  0  0  0  0  0  0  0  0  0  0
    6.7306   -8.7052    9.1903 C   0  0  0  0  0  0  0  0  0  0  0  0
    6.8392  -10.0354    9.5154 N   0  0  0  0  0  0  0  0  0  0  0  0
    6.0149  -11.1237    9.1924 C   0  0  0  0  0  0  0  0  0  0  0  0
    4.3041  -15.3845    8.6183 N   0  0  0  0  0  0  0  0  0  0  0  0
    3.3154  -16.3961    7.9957 C   0  0  0  0  0  0  0  0  0  0  0  0
    2.1538  -16.8557    8.9326 C   0  0  0  0  0  0  0  0  0  0  0  0
    1.0279  -17.6572    8.2667 C   0  0  0  0  0  0  0  0  0  0  0  0
    0.3431  -18.2743    9.4610 C   0  0  0  0  0  0  0  0  0  0  0  0
    1.5225  -18.6327   10.3385 C   0  0  0  0  0  0  0  0  0  0  0  0
    2.6082  -17.7417    9.9837 O   0  0  0  0  0  0  0  0  0  0  0  0
    4.0840  -17.6082    7.3698 C   0  0  0  0  0  0  0  0  0  0  0  0
    4.1783  -16.8059    6.0578 C   0  0  0  0  0  0  0  0  0  0  0  0
    2.9431  -16.0106    6.5209 C   0  0  0  0  0  0  0  0  0  0  0  0
    6.0891  -14.4488    9.5704 H   0  0  0  0  0  0  0  0  0  0  0  0
    7.8956  -13.3829   10.7887 H   0  0  0  0  0  0  0  0  0  0  0  0
    8.2461   -7.1133    9.4398 H   0  0  0  0  0  0  0  0  0  0  0  0
    5.8765   -8.3125    8.6583 H   0  0  0  0  0  0  0  0  0  0  0  0
    5.1337  -10.9046    8.6010 H   0  0  0  0  0  0  0  0  0  0  0  0
    4.9998  -15.7003    9.2708 H   0  0  0  0  0  0  0  0  0  0  0  0
    1.7397  -15.9874    9.4354 H   0  0  0  0  0  0  0  0  0  0  0  0
    1.4175  -18.4583    7.6303 H   0  0  0  0  0  0  0  0  0  0  0  0
    0.3631  -17.0495    7.6510 H   0  0  0  0  0  0  0  0  0  0  0  0
   -0.2940  -19.1290    9.2215 H   0  0  0  0  0  0  0  0  0  0  0  0
   -0.2646  -17.5103    9.9515 H   0  0  0  0  0  0  0  0  0  0  0  0
    1.2975  -18.5346   11.4030 H   0  0  0  0  0  0  0  0  0  0  0  0
    1.8661  -19.6542   10.1468 H   0  0  0  0  0  0  0  0  0  0  0  0
    3.5216  -18.5407    7.2621 H   0  0  0  0  0  0  0  0  0  0  0  0
    5.0467  -17.8529    7.8301 H   0  0  0  0  0  0  0  0  0  0  0  0
    4.0523  -17.3838    5.1387 H   0  0  0  0  0  0  0  0  0  0  0  0
    5.0882  -16.2008    5.9729 H   0  0  0  0  0  0  0  0  0  0  0  0
    2.0066  -16.4337    6.1420 H   0  0  0  0  0  0  0  0  0  0  0  0
    2.9498  -14.9509    6.2576 H   0  0  0  0  0  0  0  0  0  0  0  0
  1  2  2  0
  2  3  1  0
  3  4  1  0
  4  5  1  0
  5  6  2  0
  6  7  1  0
  7  8  2  0
  8  9  1  0
  9 10  2  0
 10 11  1  0
 11 12  1  0
  2 13  1  0
 13 14  1  0
 14 15  1  0
 15 16  1  0
 16 17  1  0
 17 18  1  0
 18 19  1  0
 14 20  1  0
 20 21  1  0
 21 22  1  0
 12  4  2  0
 22 14  1  0
 11  7  1  0
 19 15  1  0
  3 23  1  0
  5 24  1  0
  9 25  1  0
 10 26  1  0
 12 27  1  0
 13 28  1  0
 15 29  1  0
 16 30  1  0
 16 31  1  0
 17 32  1  0
 17 33  1  0
 18 34  1  0
 18 35  1  0
 20 36  1  0
 20 37  1  0
 21 38  1  0
 21 39  1  0
 22 40  1  0
 22 41  1  0
M  END
>  <Energy>  (638) 
29.307653617609251

>  <compound_id>  (638) 
13914

>  <target_id>  (638) 
1

>  <reference_id>  (638) 
28

>  <inspiration_ids>  (638) 
[106, 28]

>  <energy_score>  (638) 
-19.09357346771938

>  <distance_score>  (638) 
15.589820389797909

>  <path>  (638) 
/opt/xchem-fragalysis-2/maxwin/BulkDock/SCRATCH/511017/C13914-P28/C13914-P28.minimised.mol

>  <scratch_subdir>  (638) 
/opt/xchem-fragalysis-2/maxwin/BulkDock/SCRATCH/511017/C13914-P28

>  <fragmenstein_runtime>  (638) 
20.63125991821289

>  <fragmenstein_outcome>  (638) 
too moved

>  <fragmenstein_mode>  (638) 
expansion

>  <fragmenstein_error>  (638) 


$$$$
C13915-P106
     RDKit          3D

 38 41  0  0  0  0  0  0  0  0999 V2000
    3.8604  -14.1983    8.2115 O   0  0  0  0  0  0  0  0  0  0  0  0
    3.0343  -13.5635    8.7620 C   0  0  0  0  0  0  0  0  0  0  0  0
    3.1543  -12.2386    9.5143 N   0  0  0  0  0  0  0  0  0  0  0  0
    4.2763  -11.4720    9.8329 C   0  0  0  0  0  0  0  0  0  0  0  0
    5.6957  -11.8188    9.4316 C   0  0  0  0  0  0  0  0  0  0  0  0
    6.8039  -11.2623    9.8415 N   0  0  0  0  0  0  0  0  0  0  0  0
    6.6795  -10.2807   10.7776 C   0  0  0  0  0  0  0  0  0  0  0  0
    7.6074   -9.6864   11.4994 N   0  0  0  0  0  0  0  0  0  0  0  0
    6.9357   -8.8819   12.3722 C   0  0  0  0  0  0  0  0  0  0  0  0
    5.5900   -8.8879   12.1142 C   0  0  0  0  0  0  0  0  0  0  0  0
    5.4181   -9.8237   11.1312 N   0  0  0  0  0  0  0  0  0  0  0  0
    4.2442  -10.3810   10.6218 C   0  0  0  0  0  0  0  0  0  0  0  0
    1.5147  -13.8754    8.9687 N   0  0  0  0  0  0  0  0  0  0  0  0
    0.7162  -15.0875    8.6223 C   0  0  0  0  0  0  0  0  0  0  0  0
   -0.8490  -15.0166    8.7941 C   0  0  0  0  0  0  0  0  0  0  0  0
   -1.6972  -15.7640    7.7597 C   0  0  0  0  0  0  0  0  0  0  0  0
   -3.0094  -15.9524    8.4813 C   0  0  0  0  0  0  0  0  0  0  0  0
   -2.5298  -16.2685    9.8744 C   0  0  0  0  0  0  0  0  0  0  0  0
   -1.2764  -15.5798   10.0617 O   0  0  0  0  0  0  0  0  0  0  0  0
    1.3016  -15.9862    7.5325 C   0  0  0  0  0  0  0  0  0  0  0  0
    1.3003  -16.4563    8.9514 C   0  0  0  0  0  0  0  0  0  0  0  0
    2.2696  -12.0127    9.9351 H   0  0  0  0  0  0  0  0  0  0  0  0
    5.7835  -12.6327    8.6938 H   0  0  0  0  0  0  0  0  0  0  0  0
    7.4515   -8.3266   13.1373 H   0  0  0  0  0  0  0  0  0  0  0  0
    4.7704   -8.3590   12.5652 H   0  0  0  0  0  0  0  0  0  0  0  0
    3.3179   -9.9714   10.9818 H   0  0  0  0  0  0  0  0  0  0  0  0
    1.1040  -13.1674    9.5537 H   0  0  0  0  0  0  0  0  0  0  0  0
   -1.1410  -13.9589    8.8057 H   0  0  0  0  0  0  0  0  0  0  0  0
   -1.2950  -16.7582    7.5392 H   0  0  0  0  0  0  0  0  0  0  0  0
   -1.7911  -15.2153    6.8186 H   0  0  0  0  0  0  0  0  0  0  0  0
   -3.6409  -16.7364    8.0557 H   0  0  0  0  0  0  0  0  0  0  0  0
   -3.5743  -15.0130    8.4780 H   0  0  0  0  0  0  0  0  0  0  0  0
   -3.2480  -15.9416   10.6306 H   0  0  0  0  0  0  0  0  0  0  0  0
   -2.3406  -17.3403    9.9929 H   0  0  0  0  0  0  0  0  0  0  0  0
    2.2588  -15.7306    7.0910 H   0  0  0  0  0  0  0  0  0  0  0  0
    0.6649  -16.4956    6.8228 H   0  0  0  0  0  0  0  0  0  0  0  0
    2.2512  -16.5006    9.4691 H   0  0  0  0  0  0  0  0  0  0  0  0
    0.6285  -17.2626    9.2238 H   0  0  0  0  0  0  0  0  0  0  0  0
  1  2  2  0
  2  3  1  0
  3  4  1  0
  4  5  1  0
  5  6  2  0
  6  7  1  0
  7  8  2  0
  8  9  1  0
  9 10  2  0
 10 11  1  0
 11 12  1  0
  2 13  1  0
 13 14  1  0
 14 15  1  0
 15 16  1  0
 16 17  1  0
 17 18  1  0
 18 19  1  0
 14 20  1  0
 20 21  1  0
 12  4  2  0
 21 14  1  0
 11  7  1  0
 19 15  1  0
  3 22  1  0
  5 23  1  0
  9 24  1  0
 10 25  1  0
 12 26  1  0
 13 27  1  0
 15 28  1  0
 16 29  1  0
 16 30  1  0
 17 31  1  0
 17 32  1  0
 18 33  1  0
 18 34  1  0
 20 35  1  0
 20 36  1  0
 21 37  1  0
 21 38  1  0
M  END
>  <Energy>  (639) 
37.86218977298001

>  <compound_id>  (639) 
13915

>  <target_id>  (639) 
1

>  <reference_id>  (639) 
106

>  <inspiration_ids>  (639) 
[106, 28]

>  <energy_score>  (639) 
-27.862071587608227

>  <distance_score>  (639) 
15.014169062711899

>  <path>  (639) 
/opt/xchem-fragalysis-2/maxwin/BulkDock/SCRATCH/511017/C13915-P106/C13915-P106.minimised.mol

>  <scratch_subdir>  (639) 
/opt/xchem-fragalysis-2/maxwin/BulkDock/SCRATCH/511017/C13915-P106

>  <fragmenstein_runtime>  (639) 
20.96057438850403

>  <fragmenstein_outcome>  (639) 
too moved

>  <fragmenstein_mode>  (639) 
expansion

>  <fragmenstein_error>  (639) 


$$$$
C13915-P28
     RDKit          3D

 38 41  0  0  0  0  0  0  0  0999 V2000
    9.5855  -17.4972   13.4640 O   0  0  0  0  0  0  0  0  0  0  0  0
    9.1185  -17.2359   14.5189 C   0  0  0  0  0  0  0  0  0  0  0  0
    9.4594  -16.0865   15.4995 N   0  0  0  0  0  0  0  0  0  0  0  0
   10.3332  -15.0030   15.3652 C   0  0  0  0  0  0  0  0  0  0  0  0
   10.5455  -14.0016   16.5058 C   0  0  0  0  0  0  0  0  0  0  0  0
   11.1233  -12.8317   16.4728 N   0  0  0  0  0  0  0  0  0  0  0  0
   11.5915  -12.4392   15.2529 C   0  0  0  0  0  0  0  0  0  0  0  0
   12.1807  -11.3127   14.8909 N   0  0  0  0  0  0  0  0  0  0  0  0
   12.4283  -11.4381   13.5486 C   0  0  0  0  0  0  0  0  0  0  0  0
   12.0300  -12.6623   13.0828 C   0  0  0  0  0  0  0  0  0  0  0  0
   11.5004  -13.3080   14.1670 N   0  0  0  0  0  0  0  0  0  0  0  0
   10.9088  -14.5712   14.2313 C   0  0  0  0  0  0  0  0  0  0  0  0
    7.9209  -17.8817   15.2672 N   0  0  0  0  0  0  0  0  0  0  0  0
    6.9620  -18.9388   14.8353 C   0  0  0  0  0  0  0  0  0  0  0  0
    5.4237  -18.5352   14.7332 C   0  0  0  0  0  0  0  0  0  0  0  0
    4.7648  -18.7116   13.3556 C   0  0  0  0  0  0  0  0  0  0  0  0
    3.6646  -19.7352   13.5635 C   0  0  0  0  0  0  0  0  0  0  0  0
    3.3328  -19.5573   15.0209 C   0  0  0  0  0  0  0  0  0  0  0  0
    4.5967  -19.2951   15.6608 O   0  0  0  0  0  0  0  0  0  0  0  0
    7.2642  -20.3148   15.4312 C   0  0  0  0  0  0  0  0  0  0  0  0
    7.4203  -20.0998   13.9656 C   0  0  0  0  0  0  0  0  0  0  0  0
    8.9335  -16.2008   16.3411 H   0  0  0  0  0  0  0  0  0  0  0  0
   10.1586  -14.3451   17.4803 H   0  0  0  0  0  0  0  0  0  0  0  0
   12.8834  -10.6535   12.9638 H   0  0  0  0  0  0  0  0  0  0  0  0
   12.0661  -13.1131   12.1019 H   0  0  0  0  0  0  0  0  0  0  0  0
   10.8565  -15.1244   13.3028 H   0  0  0  0  0  0  0  0  0  0  0  0
    7.7350  -17.3678   16.1057 H   0  0  0  0  0  0  0  0  0  0  0  0
    5.3470  -17.4839   15.0373 H   0  0  0  0  0  0  0  0  0  0  0  0
    5.4534  -18.9878   12.5533 H   0  0  0  0  0  0  0  0  0  0  0  0
    4.3352  -17.7541   13.0493 H   0  0  0  0  0  0  0  0  0  0  0  0
    4.0712  -20.7390   13.3952 H   0  0  0  0  0  0  0  0  0  0  0  0
    2.8052  -19.5956   12.9030 H   0  0  0  0  0  0  0  0  0  0  0  0
    2.8702  -20.4405   15.4680 H   0  0  0  0  0  0  0  0  0  0  0  0
    2.6926  -18.6897   15.1827 H   0  0  0  0  0  0  0  0  0  0  0  0
    8.1650  -20.4374   16.0210 H   0  0  0  0  0  0  0  0  0  0  0  0
    6.4415  -20.9359   15.7666 H   0  0  0  0  0  0  0  0  0  0  0  0
    6.7241  -20.6280   13.3265 H   0  0  0  0  0  0  0  0  0  0  0  0
    8.4247  -20.0599   13.5581 H   0  0  0  0  0  0  0  0  0  0  0  0
  1  2  2  0
  2  3  1  0
  3  4  1  0
  4  5  1  0
  5  6  2  0
  6  7  1  0
  7  8  2  0
  8  9  1  0
  9 10  2  0
 10 11  1  0
 11 12  1  0
  2 13  1  0
 13 14  1  0
 14 15  1  0
 15 16  1  0
 16 17  1  0
 17 18  1  0
 18 19  1  0
 14 20  1  0
 20 21  1  0
 12  4  2  0
 21 14  1  0
 11  7  1  0
 19 15  1  0
  3 22  1  0
  5 23  1  0
  9 24  1  0
 10 25  1  0
 12 26  1  0
 13 27  1  0
 15 28  1  0
 16 29  1  0
 16 30  1  0
 17 31  1  0
 17 32  1  0
 18 33  1  0
 18 34  1  0
 20 35  1  0
 20 36  1  0
 21 37  1  0
 21 38  1  0
M  END
>  <Energy>  (640) 
37.854329743515358

>  <compound_id>  (640) 
13915

>  <target_id>  (640) 
1

>  <reference_id>  (640) 
28

>  <inspiration_ids>  (640) 
[106, 28]

>  <energy_score>  (640) 
-27.869931617074087

>  <distance_score>  (640) 
16.33995147775504

>  <path>  (640) 
/opt/xchem-fragalysis-2/maxwin/BulkDock/SCRATCH/511017/C13915-P28/C13915-P28.minimised.mol

>  <scratch_subdir>  (640) 
/opt/xchem-fragalysis-2/maxwin/BulkDock/SCRATCH/511017/C13915-P28

>  <fragmenstein_runtime>  (640) 
17.51116418838501

>  <fragmenstein_outcome>  (640) 
too moved

>  <fragmenstein_mode>  (640) 
expansion

>  <fragmenstein_error>  (640) 


$$$$
C13916-P106
     RDKit          3D

 43 45  0  0  0  0  0  0  0  0999 V2000
    0.5177  -14.4811   12.3525 O   0  0  0  0  0  0  0  0  0  0  0  0
   -0.2298  -14.0800   11.5227 C   0  0  0  0  0  0  0  0  0  0  0  0
   -1.7440  -14.9102   11.1484 N   0  0  0  0  0  0  0  0  0  0  0  0
   -2.5612  -16.3705   11.9379 C   0  0  0  0  0  0  0  0  0  0  0  0
   -3.8275  -17.8066   11.6353 C   0  0  0  0  0  0  0  0  0  0  0  0
   -4.7770  -17.3591   10.6492 O   0  0  0  0  0  0  0  0  0  0  0  0
   -4.9329  -18.8848   12.7946 C   0  0  0  0  0  0  0  0  0  0  0  0
   -5.0445  -20.5957   12.4573 N   0  0  0  0  0  0  0  0  0  0  0  0
   -6.4165  -21.7821   12.6981 C   0  0  0  0  0  0  0  0  0  0  0  0
   -7.5091  -21.6358   13.2219 O   0  0  0  0  0  0  0  0  0  0  0  0
   -6.0199  -23.4561   11.8399 C   0  0  0  0  0  0  0  0  0  0  0  0
   -7.2805  -24.3334   11.4285 C   0  0  0  0  0  0  0  0  0  0  0  0
   -6.7047  -25.4271   10.5355 C   0  0  0  0  0  0  0  0  0  0  0  0
   -5.2606  -25.0322   10.2909 C   0  0  0  0  0  0  0  0  0  0  0  0
   -5.1028  -23.6845   10.7350 O   0  0  0  0  0  0  0  0  0  0  0  0
    0.3832  -12.4406   10.8734 C   0  0  0  0  0  0  0  0  0  0  0  0
    0.8281  -11.6367   11.9609 C   0  0  0  0  0  0  0  0  0  0  0  0
    2.3999  -10.9892   11.8384 N   0  0  0  0  0  0  0  0  0  0  0  0
    3.6815  -10.4259   13.0266 C   0  0  0  0  0  0  0  0  0  0  0  0
    4.0266   -9.0079   12.9979 C   0  0  0  0  0  0  0  0  0  0  0  0
    3.2918   -8.5597   11.2309 C   0  0  0  0  0  0  0  0  0  0  0  0
    2.7179   -9.3130   10.2642 N   0  0  0  0  0  0  0  0  0  0  0  0
    2.2337  -10.6162   10.5303 C   0  0  0  0  0  0  0  0  0  0  0  0
    1.4837  -11.6981    9.9231 N   0  0  0  0  0  0  0  0  0  0  0  0
   -2.1819  -14.4480   10.3601 H   0  0  0  0  0  0  0  0  0  0  0  0
   -1.6895  -16.8947   12.3385 H   0  0  0  0  0  0  0  0  0  0  0  0
   -3.0454  -15.8472   12.7723 H   0  0  0  0  0  0  0  0  0  0  0  0
   -3.1962  -18.5663   11.1546 H   0  0  0  0  0  0  0  0  0  0  0  0
   -4.2703  -17.1628    9.8417 H   0  0  0  0  0  0  0  0  0  0  0  0
   -4.4667  -18.8425   13.7813 H   0  0  0  0  0  0  0  0  0  0  0  0
   -5.9512  -18.4983   12.7503 H   0  0  0  0  0  0  0  0  0  0  0  0
   -4.2376  -21.0735   12.0541 H   0  0  0  0  0  0  0  0  0  0  0  0
   -5.5130  -24.0941   12.5360 H   0  0  0  0  0  0  0  0  0  0  0  0
   -8.0816  -23.7242   10.9975 H   0  0  0  0  0  0  0  0  0  0  0  0
   -7.8866  -24.8482   12.1675 H   0  0  0  0  0  0  0  0  0  0  0  0
   -7.2648  -25.5146    9.5983 H   0  0  0  0  0  0  0  0  0  0  0  0
   -6.7487  -26.4104   11.0171 H   0  0  0  0  0  0  0  0  0  0  0  0
   -4.5771  -25.6676   10.8647 H   0  0  0  0  0  0  0  0  0  0  0  0
   -4.9851  -25.1013    9.2347 H   0  0  0  0  0  0  0  0  0  0  0  0
    0.6349  -12.0311   12.9485 H   0  0  0  0  0  0  0  0  0  0  0  0
    3.8659  -10.8931   13.9904 H   0  0  0  0  0  0  0  0  0  0  0  0
    4.5176   -8.2302   13.5592 H   0  0  0  0  0  0  0  0  0  0  0  0
    3.4704   -7.4798   11.0278 H   0  0  0  0  0  0  0  0  0  0  0  0
  1  2  2  0
  2  3  1  0
  3  4  1  0
  4  5  1  0
  5  6  1  0
  5  7  1  0
  7  8  1  0
  8  9  1  0
  9 10  2  0
  9 11  1  0
 11 12  1  0
 12 13  1  0
 13 14  1  0
 14 15  1  0
  2 16  1  0
 16 17  2  0
 17 18  1  0
 18 19  1  0
 19 20  2  0
 20 21  1  0
 21 22  2  0
 22 23  1  0
 23 24  2  0
 15 11  1  0
 24 16  1  0
 23 18  1  0
  3 25  1  0
  4 26  1  0
  4 27  1  0
  5 28  1  0
  6 29  1  0
  7 30  1  0
  7 31  1  0
  8 32  1  0
 11 33  1  0
 12 34  1  0
 12 35  1  0
 13 36  1  0
 13 37  1  0
 14 38  1  0
 14 39  1  0
 17 40  1  0
 19 41  1  0
 20 42  1  0
 21 43  1  0
M  END
>  <Energy>  (641) 
716.95161832262147

>  <compound_id>  (641) 
13916

>  <target_id>  (641) 
1

>  <reference_id>  (641) 
106

>  <inspiration_ids>  (641) 
[106, 28]

>  <energy_score>  (641) 
580.6079209971701

>  <distance_score>  (641) 
13.342374044108395

>  <path>  (641) 
/opt/xchem-fragalysis-2/maxwin/BulkDock/SCRATCH/511017/C13916-P106/C13916-P106.minimised.mol

>  <scratch_subdir>  (641) 
/opt/xchem-fragalysis-2/maxwin/BulkDock/SCRATCH/511017/C13916-P106

>  <fragmenstein_runtime>  (641) 
12.603511810302734

>  <fragmenstein_outcome>  (641) 
too moved

>  <fragmenstein_mode>  (641) 
expansion

>  <fragmenstein_error>  (641) 


$$$$
C13916-P28
     RDKit          3D

 43 45  0  0  0  0  0  0  0  0999 V2000
   -0.2424   -8.1206   10.5402 O   0  0  0  0  0  0  0  0  0  0  0  0
    0.8108   -8.5976   10.2250 C   0  0  0  0  0  0  0  0  0  0  0  0
    1.2082   -9.9745   10.0644 N   0  0  0  0  0  0  0  0  0  0  0  0
    0.4746  -11.2395   10.3338 C   0  0  0  0  0  0  0  0  0  0  0  0
   -0.7753  -11.7501    9.5272 C   0  0  0  0  0  0  0  0  0  0  0  0
   -1.2179  -13.0478   10.0214 O   0  0  0  0  0  0  0  0  0  0  0  0
   -1.9390  -10.7456    9.5699 C   0  0  0  0  0  0  0  0  0  0  0  0
   -3.1114  -11.2583    8.8881 N   0  0  0  0  0  0  0  0  0  0  0  0
   -4.2335  -12.0197    9.3792 C   0  0  0  0  0  0  0  0  0  0  0  0
   -4.5235  -12.3563   10.4932 O   0  0  0  0  0  0  0  0  0  0  0  0
   -5.1415  -12.4309    8.1755 C   0  0  0  0  0  0  0  0  0  0  0  0
   -4.4870  -13.5315    7.3531 C   0  0  0  0  0  0  0  0  0  0  0  0
   -4.9968  -14.7765    8.0373 C   0  0  0  0  0  0  0  0  0  0  0  0
   -6.4014  -14.3758    8.4316 C   0  0  0  0  0  0  0  0  0  0  0  0
   -6.4146  -12.9497    8.5785 O   0  0  0  0  0  0  0  0  0  0  0  0
    1.9720   -7.6085   10.0580 C   0  0  0  0  0  0  0  0  0  0  0  0
    1.9463   -6.2949   10.5240 C   0  0  0  0  0  0  0  0  0  0  0  0
    3.1954   -5.7660   10.3373 N   0  0  0  0  0  0  0  0  0  0  0  0
    3.6869   -4.4986   10.6443 C   0  0  0  0  0  0  0  0  0  0  0  0
    4.9251   -4.1596   10.2626 C   0  0  0  0  0  0  0  0  0  0  0  0
    5.6709   -5.2419    9.5594 C   0  0  0  0  0  0  0  0  0  0  0  0
    5.2385   -6.4400    9.3033 N   0  0  0  0  0  0  0  0  0  0  0  0
    3.9567   -6.7345    9.6944 C   0  0  0  0  0  0  0  0  0  0  0  0
    3.2569   -7.8618    9.5682 N   0  0  0  0  0  0  0  0  0  0  0  0
    2.2081  -10.0104    9.8683 H   0  0  0  0  0  0  0  0  0  0  0  0
    1.2344  -12.0271   10.2833 H   0  0  0  0  0  0  0  0  0  0  0  0
    0.1787  -11.1821   11.3879 H   0  0  0  0  0  0  0  0  0  0  0  0
   -0.4752  -11.9070    8.4848 H   0  0  0  0  0  0  0  0  0  0  0  0
   -1.6057  -12.8829   10.9110 H   0  0  0  0  0  0  0  0  0  0  0  0
   -1.6658   -9.8079    9.0796 H   0  0  0  0  0  0  0  0  0  0  0  0
   -2.2306  -10.5405   10.6040 H   0  0  0  0  0  0  0  0  0  0  0  0
   -3.2326  -11.0934    7.8964 H   0  0  0  0  0  0  0  0  0  0  0  0
   -5.3260  -11.5345    7.5726 H   0  0  0  0  0  0  0  0  0  0  0  0
   -4.8672  -13.5007    6.3249 H   0  0  0  0  0  0  0  0  0  0  0  0
   -3.3950  -13.4893    7.3161 H   0  0  0  0  0  0  0  0  0  0  0  0
   -4.4004  -14.9818    8.9342 H   0  0  0  0  0  0  0  0  0  0  0  0
   -4.9705  -15.6674    7.4042 H   0  0  0  0  0  0  0  0  0  0  0  0
   -6.7231  -14.8454    9.3656 H   0  0  0  0  0  0  0  0  0  0  0  0
   -7.1207  -14.6348    7.6476 H   0  0  0  0  0  0  0  0  0  0  0  0
    1.1496   -5.7343   10.9909 H   0  0  0  0  0  0  0  0  0  0  0  0
    3.0170   -3.8163   11.1513 H   0  0  0  0  0  0  0  0  0  0  0  0
    5.3825   -3.1937   10.4187 H   0  0  0  0  0  0  0  0  0  0  0  0
    6.6916   -4.9724    9.2394 H   0  0  0  0  0  0  0  0  0  0  0  0
  1  2  2  0
  2  3  1  0
  3  4  1  0
  4  5  1  0
  5  6  1  0
  5  7  1  0
  7  8  1  0
  8  9  1  0
  9 10  2  0
  9 11  1  0
 11 12  1  0
 12 13  1  0
 13 14  1  0
 14 15  1  0
  2 16  1  0
 16 17  2  0
 17 18  1  0
 18 19  1  0
 19 20  2  0
 20 21  1  0
 21 22  2  0
 22 23  1  0
 23 24  2  0
 15 11  1  0
 24 16  1  0
 23 18  1  0
  3 25  1  0
  4 26  1  0
  4 27  1  0
  5 28  1  0
  6 29  1  0
  7 30  1  0
  7 31  1  0
  8 32  1  0
 11 33  1  0
 12 34  1  0
 12 35  1  0
 13 36  1  0
 13 37  1  0
 14 38  1  0
 14 39  1  0
 17 40  1  0
 19 41  1  0
 20 42  1  0
 21 43  1  0
M  END
>  <Energy>  (642) 
98.446757575908265

>  <compound_id>  (642) 
13916

>  <target_id>  (642) 
1

>  <reference_id>  (642) 
28

>  <inspiration_ids>  (642) 
[106, 28]

>  <energy_score>  (642) 
-37.89693974954595

>  <distance_score>  (642) 
15.958760801759453

>  <path>  (642) 
/opt/xchem-fragalysis-2/maxwin/BulkDock/SCRATCH/511017/C13916-P28/C13916-P28.minimised.mol

>  <scratch_subdir>  (642) 
/opt/xchem-fragalysis-2/maxwin/BulkDock/SCRATCH/511017/C13916-P28

>  <fragmenstein_runtime>  (642) 
20.48537254333496

>  <fragmenstein_outcome>  (642) 
too moved

>  <fragmenstein_mode>  (642) 
expansion

>  <fragmenstein_error>  (642) 


$$$$
C13921-P106
     RDKit          3D

 41 44  0  0  0  0  0  0  0  0999 V2000
   -7.9972  -16.4255    6.7559 O   0  0  0  0  0  0  0  0  0  0  0  0
   -7.9358  -15.4559    7.8010 C   0  0  0  0  0  0  0  0  0  0  0  0
   -7.2036  -14.1662    7.4204 C   0  0  0  0  0  0  0  0  0  0  0  0
   -6.5589  -13.3139    8.5923 C   0  0  0  0  0  0  0  0  0  0  0  0
   -7.3690  -12.3720    9.3793 N   0  0  0  0  0  0  0  0  0  0  0  0
   -8.6563  -12.7731    9.4977 N   0  0  0  0  0  0  0  0  0  0  0  0
   -8.9841  -12.3614   10.7238 C   0  0  0  0  0  0  0  0  0  0  0  0
  -10.1722  -13.0186   11.3932 C   0  0  0  0  0  0  0  0  0  0  0  0
  -11.4762  -12.2648   11.3699 C   0  0  0  0  0  0  0  0  0  0  0  0
  -12.3187  -13.1369   12.2773 C   0  0  0  0  0  0  0  0  0  0  0  0
  -11.3236  -13.6024   13.3218 C   0  0  0  0  0  0  0  0  0  0  0  0
  -10.0127  -13.4077   12.7776 O   0  0  0  0  0  0  0  0  0  0  0  0
   -8.0666  -11.4665   11.2708 N   0  0  0  0  0  0  0  0  0  0  0  0
   -7.0676  -11.3660   10.3763 C   0  0  0  0  0  0  0  0  0  0  0  0
   -5.6639  -10.1681   10.6726 C   0  0  0  0  0  0  0  0  0  0  0  0
   -5.4352   -9.5016   11.8775 C   0  0  0  0  0  0  0  0  0  0  0  0
   -4.1953   -8.8680   11.7911 N   0  0  0  0  0  0  0  0  0  0  0  0
   -3.4426   -8.1690   12.7507 C   0  0  0  0  0  0  0  0  0  0  0  0
   -2.2330   -7.6724   12.4383 C   0  0  0  0  0  0  0  0  0  0  0  0
   -1.8134   -7.9170   11.0311 C   0  0  0  0  0  0  0  0  0  0  0  0
   -2.4933   -8.5596   10.1242 N   0  0  0  0  0  0  0  0  0  0  0  0
   -3.7204   -9.0747   10.4964 C   0  0  0  0  0  0  0  0  0  0  0  0
   -4.5743   -9.8614    9.8240 N   0  0  0  0  0  0  0  0  0  0  0  0
   -8.5222  -16.0317    6.0378 H   0  0  0  0  0  0  0  0  0  0  0  0
   -7.3698  -15.9100    8.5996 H   0  0  0  0  0  0  0  0  0  0  0  0
   -8.9623  -15.2319    8.0939 H   0  0  0  0  0  0  0  0  0  0  0  0
   -7.8675  -13.5295    6.8232 H   0  0  0  0  0  0  0  0  0  0  0  0
   -6.3807  -14.4460    6.7489 H   0  0  0  0  0  0  0  0  0  0  0  0
   -6.1363  -14.0163    9.3056 H   0  0  0  0  0  0  0  0  0  0  0  0
   -5.7631  -12.7019    8.1545 H   0  0  0  0  0  0  0  0  0  0  0  0
  -10.3493  -13.9549   10.8504 H   0  0  0  0  0  0  0  0  0  0  0  0
  -11.3606  -11.2660   11.8078 H   0  0  0  0  0  0  0  0  0  0  0  0
  -11.8993  -12.1559   10.3671 H   0  0  0  0  0  0  0  0  0  0  0  0
  -13.1742  -12.6128   12.7120 H   0  0  0  0  0  0  0  0  0  0  0  0
  -12.7055  -13.9983   11.7193 H   0  0  0  0  0  0  0  0  0  0  0  0
  -11.3985  -13.0157   14.2423 H   0  0  0  0  0  0  0  0  0  0  0  0
  -11.4665  -14.6568   13.5632 H   0  0  0  0  0  0  0  0  0  0  0  0
   -6.0034   -9.4972   12.7965 H   0  0  0  0  0  0  0  0  0  0  0  0
   -3.8861   -8.0690   13.7336 H   0  0  0  0  0  0  0  0  0  0  0  0
   -1.5906   -7.1276   13.1137 H   0  0  0  0  0  0  0  0  0  0  0  0
   -0.8297   -7.5007   10.7571 H   0  0  0  0  0  0  0  0  0  0  0  0
  1  2  1  0
  2  3  1  0
  3  4  1  0
  4  5  1  0
  5  6  1  0
  6  7  2  0
  7  8  1  0
  8  9  1  0
  9 10  1  0
 10 11  1  0
 11 12  1  0
  7 13  1  0
 13 14  2  0
 14 15  1  0
 15 16  2  0
 16 17  1  0
 17 18  1  0
 18 19  2  0
 19 20  1  0
 20 21  2  0
 21 22  1  0
 22 23  2  0
 14  5  1  0
 23 15  1  0
 12  8  1  0
 22 17  1  0
  1 24  1  0
  2 25  1  0
  2 26  1  0
  3 27  1  0
  3 28  1  0
  4 29  1  0
  4 30  1  0
  8 31  1  0
  9 32  1  0
  9 33  1  0
 10 34  1  0
 10 35  1  0
 11 36  1  0
 11 37  1  0
 16 38  1  0
 18 39  1  0
 19 40  1  0
 20 41  1  0
M  END
>  <Energy>  (643) 
116.89148905903727

>  <compound_id>  (643) 
13921

>  <target_id>  (643) 
1

>  <reference_id>  (643) 
106

>  <inspiration_ids>  (643) 
[106, 28]

>  <energy_score>  (643) 
-17.464191056781942

>  <distance_score>  (643) 
16.28391590212115

>  <path>  (643) 
/opt/xchem-fragalysis-2/maxwin/BulkDock/SCRATCH/511017/C13921-P106/C13921-P106.minimised.mol

>  <scratch_subdir>  (643) 
/opt/xchem-fragalysis-2/maxwin/BulkDock/SCRATCH/511017/C13921-P106

>  <fragmenstein_runtime>  (643) 
8.398572444915771

>  <fragmenstein_outcome>  (643) 
too moved

>  <fragmenstein_mode>  (643) 
expansion

>  <fragmenstein_error>  (643) 


$$$$
C13921-P28
     RDKit          3D

 41 44  0  0  0  0  0  0  0  0999 V2000
   -8.1802  -18.4999   19.5435 O   0  0  0  0  0  0  0  0  0  0  0  0
   -7.1574  -17.8507   18.7839 C   0  0  0  0  0  0  0  0  0  0  0  0
   -6.5508  -16.6068   19.4695 C   0  0  0  0  0  0  0  0  0  0  0  0
   -5.5305  -15.6642   18.6679 C   0  0  0  0  0  0  0  0  0  0  0  0
   -4.0920  -16.0039   18.5944 N   0  0  0  0  0  0  0  0  0  0  0  0
   -3.9216  -17.3614   18.6517 N   0  0  0  0  0  0  0  0  0  0  0  0
   -3.1464  -17.4631   19.7317 C   0  0  0  0  0  0  0  0  0  0  0  0
   -3.1681  -18.6248   20.6655 C   0  0  0  0  0  0  0  0  0  0  0  0
   -2.9907  -19.9926   20.0395 C   0  0  0  0  0  0  0  0  0  0  0  0
   -3.6894  -20.8704   21.0443 C   0  0  0  0  0  0  0  0  0  0  0  0
   -4.8948  -20.0209   21.3681 C   0  0  0  0  0  0  0  0  0  0  0  0
   -4.4099  -18.6810   21.4236 O   0  0  0  0  0  0  0  0  0  0  0  0
   -2.4622  -16.3110   20.0369 N   0  0  0  0  0  0  0  0  0  0  0  0
   -2.9237  -15.3851   19.1970 C   0  0  0  0  0  0  0  0  0  0  0  0
   -1.8592  -13.9323   18.9861 C   0  0  0  0  0  0  0  0  0  0  0  0
   -0.6819  -13.8082   19.7331 C   0  0  0  0  0  0  0  0  0  0  0  0
   -0.0147  -12.6743   19.3082 N   0  0  0  0  0  0  0  0  0  0  0  0
    1.2146  -12.1258   19.7036 C   0  0  0  0  0  0  0  0  0  0  0  0
    1.6787  -11.0096   19.1177 C   0  0  0  0  0  0  0  0  0  0  0  0
    0.7933  -10.4640   18.0530 C   0  0  0  0  0  0  0  0  0  0  0  0
   -0.3430  -10.9677   17.6601 N   0  0  0  0  0  0  0  0  0  0  0  0
   -0.7968  -12.1013   18.3095 C   0  0  0  0  0  0  0  0  0  0  0  0
   -1.8916  -12.8489   18.0997 N   0  0  0  0  0  0  0  0  0  0  0  0
   -8.8722  -17.8355   19.7022 H   0  0  0  0  0  0  0  0  0  0  0  0
   -6.3752  -18.5927   18.6409 H   0  0  0  0  0  0  0  0  0  0  0  0
   -7.6387  -17.5523   17.8527 H   0  0  0  0  0  0  0  0  0  0  0  0
   -7.3986  -15.9649   19.7465 H   0  0  0  0  0  0  0  0  0  0  0  0
   -6.1027  -16.8990   20.4254 H   0  0  0  0  0  0  0  0  0  0  0  0
   -5.5574  -14.6684   19.1258 H   0  0  0  0  0  0  0  0  0  0  0  0
   -5.8939  -15.5776   17.6479 H   0  0  0  0  0  0  0  0  0  0  0  0
   -2.3789  -18.4746   21.4141 H   0  0  0  0  0  0  0  0  0  0  0  0
   -1.9391  -20.2546   19.8981 H   0  0  0  0  0  0  0  0  0  0  0  0
   -3.5030  -20.0414   19.0796 H   0  0  0  0  0  0  0  0  0  0  0  0
   -3.9144  -21.8758   20.6932 H   0  0  0  0  0  0  0  0  0  0  0  0
   -3.0592  -20.9727   21.9370 H   0  0  0  0  0  0  0  0  0  0  0  0
   -5.6490  -20.0429   20.5838 H   0  0  0  0  0  0  0  0  0  0  0  0
   -5.3595  -20.2884   22.3206 H   0  0  0  0  0  0  0  0  0  0  0  0
   -0.2733  -14.4495   20.5006 H   0  0  0  0  0  0  0  0  0  0  0  0
    1.7484  -12.6448   20.4902 H   0  0  0  0  0  0  0  0  0  0  0  0
    2.6098  -10.5200   19.3615 H   0  0  0  0  0  0  0  0  0  0  0  0
    1.1655   -9.5516   17.5576 H   0  0  0  0  0  0  0  0  0  0  0  0
  1  2  1  0
  2  3  1  0
  3  4  1  0
  4  5  1  0
  5  6  1  0
  6  7  2  0
  7  8  1  0
  8  9  1  0
  9 10  1  0
 10 11  1  0
 11 12  1  0
  7 13  1  0
 13 14  2  0
 14 15  1  0
 15 16  2  0
 16 17  1  0
 17 18  1  0
 18 19  2  0
 19 20  1  0
 20 21  2  0
 21 22  1  0
 22 23  2  0
 14  5  1  0
 23 15  1  0
 12  8  1  0
 22 17  1  0
  1 24  1  0
  2 25  1  0
  2 26  1  0
  3 27  1  0
  3 28  1  0
  4 29  1  0
  4 30  1  0
  8 31  1  0
  9 32  1  0
  9 33  1  0
 10 34  1  0
 10 35  1  0
 11 36  1  0
 11 37  1  0
 16 38  1  0
 18 39  1  0
 19 40  1  0
 20 41  1  0
M  END
>  <Energy>  (644) 
126.00599840162677

>  <compound_id>  (644) 
13921

>  <target_id>  (644) 
1

>  <reference_id>  (644) 
28

>  <inspiration_ids>  (644) 
[106, 28]

>  <energy_score>  (644) 
-8.349681714192172

>  <distance_score>  (644) 
15.397075747786332

>  <path>  (644) 
/opt/xchem-fragalysis-2/maxwin/BulkDock/SCRATCH/511017/C13921-P28/C13921-P28.minimised.mol

>  <scratch_subdir>  (644) 
/opt/xchem-fragalysis-2/maxwin/BulkDock/SCRATCH/511017/C13921-P28

>  <fragmenstein_runtime>  (644) 
12.35231328010559

>  <fragmenstein_outcome>  (644) 
too moved

>  <fragmenstein_mode>  (644) 
expansion

>  <fragmenstein_error>  (644) 


$$$$
C13914-P106
     RDKit          3D

 41 44  0  0  0  0  0  0  0  0999 V2000
    1.4958  -15.5299   10.3866 O   0  0  0  0  0  0  0  0  0  0  0  0
    0.8477  -15.8729   11.3013 C   0  0  0  0  0  0  0  0  0  0  0  0
    0.5212  -14.9802   12.8200 N   0  0  0  0  0  0  0  0  0  0  0  0
    1.1324  -13.5061   13.4057 C   0  0  0  0  0  0  0  0  0  0  0  0
    1.2353  -12.4490   14.4778 C   0  0  0  0  0  0  0  0  0  0  0  0
    1.6747  -12.4120   16.0744 N   0  0  0  0  0  0  0  0  0  0  0  0
    3.1061  -11.5171   16.5397 C   0  0  0  0  0  0  0  0  0  0  0  0
    3.4423  -10.2837   16.9333 N   0  0  0  0  0  0  0  0  0  0  0  0
    3.9907   -9.6742   15.7583 C   0  0  0  0  0  0  0  0  0  0  0  0
    4.1019  -10.6348   14.7526 C   0  0  0  0  0  0  0  0  0  0  0  0
    3.5564  -11.8698   15.3530 N   0  0  0  0  0  0  0  0  0  0  0  0
    2.2902  -13.2627   14.7206 C   0  0  0  0  0  0  0  0  0  0  0  0
    0.2003  -17.1873   11.5282 N   0  0  0  0  0  0  0  0  0  0  0  0
    0.2616  -18.5225   10.7076 C   0  0  0  0  0  0  0  0  0  0  0  0
   -0.6602  -19.7091   11.1928 C   0  0  0  0  0  0  0  0  0  0  0  0
   -0.2439  -21.1432   10.9299 C   0  0  0  0  0  0  0  0  0  0  0  0
   -1.2301  -21.9120   11.7943 C   0  0  0  0  0  0  0  0  0  0  0  0
   -1.5833  -20.9336   12.9029 C   0  0  0  0  0  0  0  0  0  0  0  0
   -0.8611  -19.7087   12.6215 O   0  0  0  0  0  0  0  0  0  0  0  0
    0.0654  -18.2976    9.1766 C   0  0  0  0  0  0  0  0  0  0  0  0
    1.3531  -19.0991    8.9176 C   0  0  0  0  0  0  0  0  0  0  0  0
    1.7554  -18.8667   10.3826 C   0  0  0  0  0  0  0  0  0  0  0  0
   -0.1111  -15.4680   13.3597 H   0  0  0  0  0  0  0  0  0  0  0  0
    0.2919  -12.0215   14.1394 H   0  0  0  0  0  0  0  0  0  0  0  0
    4.2766   -8.6315   15.7524 H   0  0  0  0  0  0  0  0  0  0  0  0
    4.4789  -10.6067   13.7444 H   0  0  0  0  0  0  0  0  0  0  0  0
    3.8366  -13.1136   14.4235 H   0  0  0  0  0  0  0  0  0  0  0  0
   -0.1967  -17.1927   12.4185 H   0  0  0  0  0  0  0  0  0  0  0  0
   -1.6440  -19.6096   10.7095 H   0  0  0  0  0  0  0  0  0  0  0  0
   -0.3013  -21.4316    9.8775 H   0  0  0  0  0  0  0  0  0  0  0  0
    0.7695  -21.3420   11.2930 H   0  0  0  0  0  0  0  0  0  0  0  0
   -0.8042  -22.8422   12.1825 H   0  0  0  0  0  0  0  0  0  0  0  0
   -2.1290  -22.1778   11.2261 H   0  0  0  0  0  0  0  0  0  0  0  0
   -2.6530  -20.7188   12.8785 H   0  0  0  0  0  0  0  0  0  0  0  0
   -1.3001  -21.2924   13.8957 H   0  0  0  0  0  0  0  0  0  0  0  0
    0.1525  -17.2601    8.8465 H   0  0  0  0  0  0  0  0  0  0  0  0
   -0.8368  -18.7179    8.7225 H   0  0  0  0  0  0  0  0  0  0  0  0
    2.0293  -18.6674    8.1742 H   0  0  0  0  0  0  0  0  0  0  0  0
    1.1835  -20.1487    8.6593 H   0  0  0  0  0  0  0  0  0  0  0  0
    2.4609  -18.0353   10.4971 H   0  0  0  0  0  0  0  0  0  0  0  0
    2.1911  -19.7263   10.8973 H   0  0  0  0  0  0  0  0  0  0  0  0
  1  2  2  0
  2  3  1  0
  3  4  1  0
  4  5  1  0
  5  6  2  0
  6  7  1  0
  7  8  2  0
  8  9  1  0
  9 10  2  0
 10 11  1  0
 11 12  1  0
  2 13  1  0
 13 14  1  0
 14 15  1  0
 15 16  1  0
 16 17  1  0
 17 18  1  0
 18 19  1  0
 14 20  1  0
 20 21  1  0
 21 22  1  0
 12  4  2  0
 22 14  1  0
 11  7  1  0
 19 15  1  0
  3 23  1  0
  5 24  1  0
  9 25  1  0
 10 26  1  0
 12 27  1  0
 13 28  1  0
 15 29  1  0
 16 30  1  0
 16 31  1  0
 17 32  1  0
 17 33  1  0
 18 34  1  0
 18 35  1  0
 20 36  1  0
 20 37  1  0
 21 38  1  0
 21 39  1  0
 22 40  1  0
 22 41  1  0
M  END
>  <Energy>  (645) 
896.11346041341869

>  <compound_id>  (645) 
13914

>  <target_id>  (645) 
1

>  <reference_id>  (645) 
106

>  <inspiration_ids>  (645) 
[106, 28]

>  <energy_score>  (645) 
847.7122333280807

>  <distance_score>  (645) 
14.50290073225895

>  <path>  (645) 
/opt/xchem-fragalysis-2/maxwin/BulkDock/SCRATCH/511017/C13914-P106/C13914-P106.minimised.mol

>  <scratch_subdir>  (645) 
/opt/xchem-fragalysis-2/maxwin/BulkDock/SCRATCH/511017/C13914-P106

>  <fragmenstein_runtime>  (645) 
13.622390985488892

>  <fragmenstein_outcome>  (645) 
too moved

>  <fragmenstein_mode>  (645) 
expansion

>  <fragmenstein_error>  (645) 


$$$$
C13914-P28
     RDKit          3D

 41 44  0  0  0  0  0  0  0  0999 V2000
    3.7679  -13.1062    7.7976 O   0  0  0  0  0  0  0  0  0  0  0  0
    4.4429  -13.8494    8.4158 C   0  0  0  0  0  0  0  0  0  0  0  0
    5.7152  -13.5779    9.2362 N   0  0  0  0  0  0  0  0  0  0  0  0
    6.3595  -12.3777    9.5465 C   0  0  0  0  0  0  0  0  0  0  0  0
    7.6220  -12.3874   10.3992 C   0  0  0  0  0  0  0  0  0  0  0  0
    8.3967  -11.3901   10.7159 N   0  0  0  0  0  0  0  0  0  0  0  0
    8.0375  -10.1792   10.2054 C   0  0  0  0  0  0  0  0  0  0  0  0
    8.7041   -9.0422   10.2289 N   0  0  0  0  0  0  0  0  0  0  0  0
    7.9125   -8.1300    9.5925 C   0  0  0  0  0  0  0  0  0  0  0  0
    6.7306   -8.7052    9.1903 C   0  0  0  0  0  0  0  0  0  0  0  0
    6.8392  -10.0354    9.5154 N   0  0  0  0  0  0  0  0  0  0  0  0
    6.0149  -11.1237    9.1924 C   0  0  0  0  0  0  0  0  0  0  0  0
    4.3041  -15.3845    8.6183 N   0  0  0  0  0  0  0  0  0  0  0  0
    3.3154  -16.3961    7.9957 C   0  0  0  0  0  0  0  0  0  0  0  0
    2.1538  -16.8557    8.9326 C   0  0  0  0  0  0  0  0  0  0  0  0
    1.0279  -17.6572    8.2667 C   0  0  0  0  0  0  0  0  0  0  0  0
    0.3431  -18.2743    9.4610 C   0  0  0  0  0  0  0  0  0  0  0  0
    1.5225  -18.6327   10.3385 C   0  0  0  0  0  0  0  0  0  0  0  0
    2.6082  -17.7417    9.9837 O   0  0  0  0  0  0  0  0  0  0  0  0
    4.0840  -17.6082    7.3698 C   0  0  0  0  0  0  0  0  0  0  0  0
    4.1783  -16.8059    6.0578 C   0  0  0  0  0  0  0  0  0  0  0  0
    2.9431  -16.0106    6.5209 C   0  0  0  0  0  0  0  0  0  0  0  0
    6.0891  -14.4488    9.5704 H   0  0  0  0  0  0  0  0  0  0  0  0
    7.8956  -13.3829   10.7887 H   0  0  0  0  0  0  0  0  0  0  0  0
    8.2461   -7.1133    9.4398 H   0  0  0  0  0  0  0  0  0  0  0  0
    5.8765   -8.3125    8.6583 H   0  0  0  0  0  0  0  0  0  0  0  0
    5.1337  -10.9046    8.6010 H   0  0  0  0  0  0  0  0  0  0  0  0
    4.9998  -15.7003    9.2708 H   0  0  0  0  0  0  0  0  0  0  0  0
    1.7397  -15.9874    9.4354 H   0  0  0  0  0  0  0  0  0  0  0  0
    1.4175  -18.4583    7.6303 H   0  0  0  0  0  0  0  0  0  0  0  0
    0.3631  -17.0495    7.6510 H   0  0  0  0  0  0  0  0  0  0  0  0
   -0.2940  -19.1290    9.2215 H   0  0  0  0  0  0  0  0  0  0  0  0
   -0.2646  -17.5103    9.9515 H   0  0  0  0  0  0  0  0  0  0  0  0
    1.2975  -18.5346   11.4030 H   0  0  0  0  0  0  0  0  0  0  0  0
    1.8661  -19.6542   10.1468 H   0  0  0  0  0  0  0  0  0  0  0  0
    3.5216  -18.5407    7.2621 H   0  0  0  0  0  0  0  0  0  0  0  0
    5.0467  -17.8529    7.8301 H   0  0  0  0  0  0  0  0  0  0  0  0
    4.0523  -17.3838    5.1387 H   0  0  0  0  0  0  0  0  0  0  0  0
    5.0882  -16.2008    5.9729 H   0  0  0  0  0  0  0  0  0  0  0  0
    2.0066  -16.4337    6.1420 H   0  0  0  0  0  0  0  0  0  0  0  0
    2.9498  -14.9509    6.2576 H   0  0  0  0  0  0  0  0  0  0  0  0
  1  2  2  0
  2  3  1  0
  3  4  1  0
  4  5  1  0
  5  6  2  0
  6  7  1  0
  7  8  2  0
  8  9  1  0
  9 10  2  0
 10 11  1  0
 11 12  1  0
  2 13  1  0
 13 14  1  0
 14 15  1  0
 15 16  1  0
 16 17  1  0
 17 18  1  0
 18 19  1  0
 14 20  1  0
 20 21  1  0
 21 22  1  0
 12  4  2  0
 22 14  1  0
 11  7  1  0
 19 15  1  0
  3 23  1  0
  5 24  1  0
  9 25  1  0
 10 26  1  0
 12 27  1  0
 13 28  1  0
 15 29  1  0
 16 30  1  0
 16 31  1  0
 17 32  1  0
 17 33  1  0
 18 34  1  0
 18 35  1  0
 20 36  1  0
 20 37  1  0
 21 38  1  0
 21 39  1  0
 22 40  1  0
 22 41  1  0
M  END
>  <Energy>  (646) 
29.307653617609251

>  <compound_id>  (646) 
13914

>  <target_id>  (646) 
1

>  <reference_id>  (646) 
28

>  <inspiration_ids>  (646) 
[106, 28]

>  <energy_score>  (646) 
-19.09357346771938

>  <distance_score>  (646) 
15.589820389797909

>  <path>  (646) 
/opt/xchem-fragalysis-2/maxwin/BulkDock/SCRATCH/511017/C13914-P28/C13914-P28.minimised.mol

>  <scratch_subdir>  (646) 
/opt/xchem-fragalysis-2/maxwin/BulkDock/SCRATCH/511017/C13914-P28

>  <fragmenstein_runtime>  (646) 
18.450794219970703

>  <fragmenstein_outcome>  (646) 
too moved

>  <fragmenstein_mode>  (646) 
expansion

>  <fragmenstein_error>  (646) 


$$$$
C13924-P106
     RDKit          3D

 35 37  0  0  0  0  0  0  0  0999 V2000
    3.3058  -14.8894    9.0808 O   0  0  0  0  0  0  0  0  0  0  0  0
    2.9277  -14.6275    7.9733 C   0  0  0  0  0  0  0  0  0  0  0  0
    1.9746  -15.7486    7.2840 C   0  0  0  0  0  0  0  0  0  0  0  0
    1.4336  -16.8981    8.2930 C   0  0  0  0  0  0  0  0  0  0  0  0
    0.3713  -17.9660    7.8477 C   0  0  0  0  0  0  0  0  0  0  0  0
   -1.1140  -17.6385    7.9990 C   0  0  0  0  0  0  0  0  0  0  0  0
   -1.7663  -19.0007    8.0715 C   0  0  0  0  0  0  0  0  0  0  0  0
   -0.7747  -19.7522    8.9249 C   0  0  0  0  0  0  0  0  0  0  0  0
    0.5182  -19.1593    8.6701 O   0  0  0  0  0  0  0  0  0  0  0  0
    3.1048  -13.4072    7.1635 N   0  0  0  0  0  0  0  0  0  0  0  0
    3.6856  -12.1612    7.4841 C   0  0  0  0  0  0  0  0  0  0  0  0
    4.3291  -11.2620    6.4397 C   0  0  0  0  0  0  0  0  0  0  0  0
    4.8660  -10.0809    6.5890 N   0  0  0  0  0  0  0  0  0  0  0  0
    4.8027   -9.5331    7.8356 C   0  0  0  0  0  0  0  0  0  0  0  0
    5.2183   -8.3545    8.2630 N   0  0  0  0  0  0  0  0  0  0  0  0
    4.8258   -8.2695    9.5708 C   0  0  0  0  0  0  0  0  0  0  0  0
    4.1793   -9.4164    9.9599 C   0  0  0  0  0  0  0  0  0  0  0  0
    4.1899  -10.2430    8.8589 N   0  0  0  0  0  0  0  0  0  0  0  0
    3.6912  -11.5484    8.6867 C   0  0  0  0  0  0  0  0  0  0  0  0
    2.5714  -16.2332    6.5031 H   0  0  0  0  0  0  0  0  0  0  0  0
    1.1305  -15.2491    6.8034 H   0  0  0  0  0  0  0  0  0  0  0  0
    1.0949  -16.4322    9.2251 H   0  0  0  0  0  0  0  0  0  0  0  0
    2.3337  -17.4525    8.5964 H   0  0  0  0  0  0  0  0  0  0  0  0
    0.5907  -18.2731    6.8182 H   0  0  0  0  0  0  0  0  0  0  0  0
   -1.3054  -17.1447    8.9574 H   0  0  0  0  0  0  0  0  0  0  0  0
   -1.4999  -17.0207    7.1843 H   0  0  0  0  0  0  0  0  0  0  0  0
   -2.7736  -18.9871    8.4955 H   0  0  0  0  0  0  0  0  0  0  0  0
   -1.8169  -19.4429    7.0699 H   0  0  0  0  0  0  0  0  0  0  0  0
   -0.7384  -20.8191    8.6882 H   0  0  0  0  0  0  0  0  0  0  0  0
   -0.9865  -19.6372    9.9920 H   0  0  0  0  0  0  0  0  0  0  0  0
    2.7233  -13.5648    6.2374 H   0  0  0  0  0  0  0  0  0  0  0  0
    4.3557  -11.7008    5.4275 H   0  0  0  0  0  0  0  0  0  0  0  0
    5.0131   -7.3833   10.1551 H   0  0  0  0  0  0  0  0  0  0  0  0
    3.7447   -9.7276   10.8950 H   0  0  0  0  0  0  0  0  0  0  0  0
    3.2648  -12.0130    9.5655 H   0  0  0  0  0  0  0  0  0  0  0  0
  1  2  2  0
  2  3  1  0
  3  4  1  0
  4  5  1  0
  5  6  1  0
  6  7  1  0
  7  8  1  0
  8  9  1  0
  2 10  1  0
 10 11  1  0
 11 12  1  0
 12 13  2  0
 13 14  1  0
 14 15  2  0
 15 16  1  0
 16 17  2  0
 17 18  1  0
 18 19  1  0
  9  5  1  0
 19 11  2  0
 18 14  1  0
  3 20  1  0
  3 21  1  0
  4 22  1  0
  4 23  1  0
  5 24  1  0
  6 25  1  0
  6 26  1  0
  7 27  1  0
  7 28  1  0
  8 29  1  0
  8 30  1  0
 10 31  1  0
 12 32  1  0
 16 33  1  0
 17 34  1  0
 19 35  1  0
M  END
>  <Energy>  (647) 
56.181953942273338

>  <compound_id>  (647) 
13924

>  <target_id>  (647) 
1

>  <reference_id>  (647) 
106

>  <inspiration_ids>  (647) 
[106, 28]

>  <energy_score>  (647) 
2.619626622445537

>  <distance_score>  (647) 
15.852467936819659

>  <path>  (647) 
/opt/xchem-fragalysis-2/maxwin/BulkDock/SCRATCH/511017/C13924-P106/C13924-P106.minimised.mol

>  <scratch_subdir>  (647) 
/opt/xchem-fragalysis-2/maxwin/BulkDock/SCRATCH/511017/C13924-P106

>  <fragmenstein_runtime>  (647) 
9.684417009353638

>  <fragmenstein_outcome>  (647) 
too moved

>  <fragmenstein_mode>  (647) 
expansion

>  <fragmenstein_error>  (647) 


$$$$
C13924-P28
     RDKit          3D

 35 37  0  0  0  0  0  0  0  0999 V2000
    0.7187  -12.1195   12.5057 O   0  0  0  0  0  0  0  0  0  0  0  0
    0.7360  -12.6735   13.6122 C   0  0  0  0  0  0  0  0  0  0  0  0
   -1.0444  -13.8003   13.8919 C   0  0  0  0  0  0  0  0  0  0  0  0
   -2.8128  -14.7287   14.7741 C   0  0  0  0  0  0  0  0  0  0  0  0
   -3.9522  -15.9268   14.6535 C   0  0  0  0  0  0  0  0  0  0  0  0
   -4.9301  -15.9297   13.4500 C   0  0  0  0  0  0  0  0  0  0  0  0
   -6.1866  -15.2222   13.8985 C   0  0  0  0  0  0  0  0  0  0  0  0
   -5.9501  -14.9040   15.3525 C   0  0  0  0  0  0  0  0  0  0  0  0
   -4.8446  -15.6983   15.7903 O   0  0  0  0  0  0  0  0  0  0  0  0
    2.0092  -12.5387   15.0680 N   0  0  0  0  0  0  0  0  0  0  0  0
    3.6094  -11.4012   15.3508 C   0  0  0  0  0  0  0  0  0  0  0  0
    3.6698  -10.1209   16.5445 C   0  0  0  0  0  0  0  0  0  0  0  0
    4.0888   -8.8562   16.4418 N   0  0  0  0  0  0  0  0  0  0  0  0
    4.7530   -8.5559   15.2820 C   0  0  0  0  0  0  0  0  0  0  0  0
    5.5162   -7.5542   14.9021 N   0  0  0  0  0  0  0  0  0  0  0  0
    5.9402   -7.9031   13.6339 C   0  0  0  0  0  0  0  0  0  0  0  0
    5.5308   -9.1125   13.2534 C   0  0  0  0  0  0  0  0  0  0  0  0
    4.8995   -9.5399   14.3492 N   0  0  0  0  0  0  0  0  0  0  0  0
    4.4453  -10.7903   14.4493 C   0  0  0  0  0  0  0  0  0  0  0  0
   -1.2352  -12.7873   13.9602 H   0  0  0  0  0  0  0  0  0  0  0  0
   -0.8307  -14.2735   12.8785 H   0  0  0  0  0  0  0  0  0  0  0  0
   -3.0469  -14.3863   15.8582 H   0  0  0  0  0  0  0  0  0  0  0  0
   -3.5894  -14.1457   14.1532 H   0  0  0  0  0  0  0  0  0  0  0  0
   -3.4859  -16.8983   14.7949 H   0  0  0  0  0  0  0  0  0  0  0  0
   -4.5359  -15.4598   12.5461 H   0  0  0  0  0  0  0  0  0  0  0  0
   -5.1835  -16.9624   13.1850 H   0  0  0  0  0  0  0  0  0  0  0  0
   -6.3749  -14.3087   13.3246 H   0  0  0  0  0  0  0  0  0  0  0  0
   -7.0652  -15.8617   13.7634 H   0  0  0  0  0  0  0  0  0  0  0  0
   -5.6878  -13.8489   15.4860 H   0  0  0  0  0  0  0  0  0  0  0  0
   -6.8239  -15.1115   15.9770 H   0  0  0  0  0  0  0  0  0  0  0  0
    1.6932  -13.0653   15.8956 H   0  0  0  0  0  0  0  0  0  0  0  0
    3.3558  -10.4469   17.5420 H   0  0  0  0  0  0  0  0  0  0  0  0
    6.5254   -7.3672   12.9231 H   0  0  0  0  0  0  0  0  0  0  0  0
    5.6410   -9.6515   12.3350 H   0  0  0  0  0  0  0  0  0  0  0  0
    5.0070  -11.3803   13.7416 H   0  0  0  0  0  0  0  0  0  0  0  0
  1  2  2  0
  2  3  1  0
  3  4  1  0
  4  5  1  0
  5  6  1  0
  6  7  1  0
  7  8  1  0
  8  9  1  0
  2 10  1  0
 10 11  1  0
 11 12  1  0
 12 13  2  0
 13 14  1  0
 14 15  2  0
 15 16  1  0
 16 17  2  0
 17 18  1  0
 18 19  1  0
  9  5  1  0
 19 11  2  0
 18 14  1  0
  3 20  1  0
  3 21  1  0
  4 22  1  0
  4 23  1  0
  5 24  1  0
  6 25  1  0
  6 26  1  0
  7 27  1  0
  7 28  1  0
  8 29  1  0
  8 30  1  0
 10 31  1  0
 12 32  1  0
 16 33  1  0
 17 34  1  0
 19 35  1  0
M  END
>  <Energy>  (648) 
653.65423864754951

>  <compound_id>  (648) 
13924

>  <target_id>  (648) 
1

>  <reference_id>  (648) 
28

>  <inspiration_ids>  (648) 
[106, 28]

>  <energy_score>  (648) 
600.0919113277164

>  <distance_score>  (648) 
13.78885102494109

>  <path>  (648) 
/opt/xchem-fragalysis-2/maxwin/BulkDock/SCRATCH/511017/C13924-P28/C13924-P28.minimised.mol

>  <scratch_subdir>  (648) 
/opt/xchem-fragalysis-2/maxwin/BulkDock/SCRATCH/511017/C13924-P28

>  <fragmenstein_runtime>  (648) 
11.19208836555481

>  <fragmenstein_outcome>  (648) 
too moved

>  <fragmenstein_mode>  (648) 
expansion

>  <fragmenstein_error>  (648) 


$$$$
C13915-P106
     RDKit          3D

 38 41  0  0  0  0  0  0  0  0999 V2000
    3.8604  -14.1983    8.2115 O   0  0  0  0  0  0  0  0  0  0  0  0
    3.0343  -13.5635    8.7620 C   0  0  0  0  0  0  0  0  0  0  0  0
    3.1543  -12.2386    9.5143 N   0  0  0  0  0  0  0  0  0  0  0  0
    4.2763  -11.4720    9.8329 C   0  0  0  0  0  0  0  0  0  0  0  0
    5.6957  -11.8188    9.4316 C   0  0  0  0  0  0  0  0  0  0  0  0
    6.8039  -11.2623    9.8415 N   0  0  0  0  0  0  0  0  0  0  0  0
    6.6795  -10.2807   10.7776 C   0  0  0  0  0  0  0  0  0  0  0  0
    7.6074   -9.6864   11.4994 N   0  0  0  0  0  0  0  0  0  0  0  0
    6.9357   -8.8819   12.3722 C   0  0  0  0  0  0  0  0  0  0  0  0
    5.5900   -8.8879   12.1142 C   0  0  0  0  0  0  0  0  0  0  0  0
    5.4181   -9.8237   11.1312 N   0  0  0  0  0  0  0  0  0  0  0  0
    4.2442  -10.3810   10.6218 C   0  0  0  0  0  0  0  0  0  0  0  0
    1.5147  -13.8754    8.9687 N   0  0  0  0  0  0  0  0  0  0  0  0
    0.7162  -15.0875    8.6223 C   0  0  0  0  0  0  0  0  0  0  0  0
   -0.8490  -15.0166    8.7941 C   0  0  0  0  0  0  0  0  0  0  0  0
   -1.6972  -15.7640    7.7597 C   0  0  0  0  0  0  0  0  0  0  0  0
   -3.0094  -15.9524    8.4813 C   0  0  0  0  0  0  0  0  0  0  0  0
   -2.5298  -16.2685    9.8744 C   0  0  0  0  0  0  0  0  0  0  0  0
   -1.2764  -15.5798   10.0617 O   0  0  0  0  0  0  0  0  0  0  0  0
    1.3016  -15.9862    7.5325 C   0  0  0  0  0  0  0  0  0  0  0  0
    1.3003  -16.4563    8.9514 C   0  0  0  0  0  0  0  0  0  0  0  0
    2.2696  -12.0127    9.9351 H   0  0  0  0  0  0  0  0  0  0  0  0
    5.7835  -12.6327    8.6938 H   0  0  0  0  0  0  0  0  0  0  0  0
    7.4515   -8.3266   13.1373 H   0  0  0  0  0  0  0  0  0  0  0  0
    4.7704   -8.3590   12.5652 H   0  0  0  0  0  0  0  0  0  0  0  0
    3.3179   -9.9714   10.9818 H   0  0  0  0  0  0  0  0  0  0  0  0
    1.1040  -13.1674    9.5537 H   0  0  0  0  0  0  0  0  0  0  0  0
   -1.1410  -13.9589    8.8057 H   0  0  0  0  0  0  0  0  0  0  0  0
   -1.2950  -16.7582    7.5392 H   0  0  0  0  0  0  0  0  0  0  0  0
   -1.7911  -15.2153    6.8186 H   0  0  0  0  0  0  0  0  0  0  0  0
   -3.6409  -16.7364    8.0557 H   0  0  0  0  0  0  0  0  0  0  0  0
   -3.5743  -15.0130    8.4780 H   0  0  0  0  0  0  0  0  0  0  0  0
   -3.2480  -15.9416   10.6306 H   0  0  0  0  0  0  0  0  0  0  0  0
   -2.3406  -17.3403    9.9929 H   0  0  0  0  0  0  0  0  0  0  0  0
    2.2588  -15.7306    7.0910 H   0  0  0  0  0  0  0  0  0  0  0  0
    0.6649  -16.4956    6.8228 H   0  0  0  0  0  0  0  0  0  0  0  0
    2.2512  -16.5006    9.4691 H   0  0  0  0  0  0  0  0  0  0  0  0
    0.6285  -17.2626    9.2238 H   0  0  0  0  0  0  0  0  0  0  0  0
  1  2  2  0
  2  3  1  0
  3  4  1  0
  4  5  1  0
  5  6  2  0
  6  7  1  0
  7  8  2  0
  8  9  1  0
  9 10  2  0
 10 11  1  0
 11 12  1  0
  2 13  1  0
 13 14  1  0
 14 15  1  0
 15 16  1  0
 16 17  1  0
 17 18  1  0
 18 19  1  0
 14 20  1  0
 20 21  1  0
 12  4  2  0
 21 14  1  0
 11  7  1  0
 19 15  1  0
  3 22  1  0
  5 23  1  0
  9 24  1  0
 10 25  1  0
 12 26  1  0
 13 27  1  0
 15 28  1  0
 16 29  1  0
 16 30  1  0
 17 31  1  0
 17 32  1  0
 18 33  1  0
 18 34  1  0
 20 35  1  0
 20 36  1  0
 21 37  1  0
 21 38  1  0
M  END
>  <Energy>  (649) 
37.86218977298001

>  <compound_id>  (649) 
13915

>  <target_id>  (649) 
1

>  <reference_id>  (649) 
106

>  <inspiration_ids>  (649) 
[106, 28]

>  <energy_score>  (649) 
-27.862071587608227

>  <distance_score>  (649) 
15.014169062711899

>  <path>  (649) 
/opt/xchem-fragalysis-2/maxwin/BulkDock/SCRATCH/511017/C13915-P106/C13915-P106.minimised.mol

>  <scratch_subdir>  (649) 
/opt/xchem-fragalysis-2/maxwin/BulkDock/SCRATCH/511017/C13915-P106

>  <fragmenstein_runtime>  (649) 
20.58478856086731

>  <fragmenstein_outcome>  (649) 
too moved

>  <fragmenstein_mode>  (649) 
expansion

>  <fragmenstein_error>  (649) 


$$$$
C13915-P28
     RDKit          3D

 38 41  0  0  0  0  0  0  0  0999 V2000
    9.5855  -17.4972   13.4640 O   0  0  0  0  0  0  0  0  0  0  0  0
    9.1185  -17.2359   14.5189 C   0  0  0  0  0  0  0  0  0  0  0  0
    9.4594  -16.0865   15.4995 N   0  0  0  0  0  0  0  0  0  0  0  0
   10.3332  -15.0030   15.3652 C   0  0  0  0  0  0  0  0  0  0  0  0
   10.5455  -14.0016   16.5058 C   0  0  0  0  0  0  0  0  0  0  0  0
   11.1233  -12.8317   16.4728 N   0  0  0  0  0  0  0  0  0  0  0  0
   11.5915  -12.4392   15.2529 C   0  0  0  0  0  0  0  0  0  0  0  0
   12.1807  -11.3127   14.8909 N   0  0  0  0  0  0  0  0  0  0  0  0
   12.4283  -11.4381   13.5486 C   0  0  0  0  0  0  0  0  0  0  0  0
   12.0300  -12.6623   13.0828 C   0  0  0  0  0  0  0  0  0  0  0  0
   11.5004  -13.3080   14.1670 N   0  0  0  0  0  0  0  0  0  0  0  0
   10.9088  -14.5712   14.2313 C   0  0  0  0  0  0  0  0  0  0  0  0
    7.9209  -17.8817   15.2672 N   0  0  0  0  0  0  0  0  0  0  0  0
    6.9620  -18.9388   14.8353 C   0  0  0  0  0  0  0  0  0  0  0  0
    5.4237  -18.5352   14.7332 C   0  0  0  0  0  0  0  0  0  0  0  0
    4.7648  -18.7116   13.3556 C   0  0  0  0  0  0  0  0  0  0  0  0
    3.6646  -19.7352   13.5635 C   0  0  0  0  0  0  0  0  0  0  0  0
    3.3328  -19.5573   15.0209 C   0  0  0  0  0  0  0  0  0  0  0  0
    4.5967  -19.2951   15.6608 O   0  0  0  0  0  0  0  0  0  0  0  0
    7.2642  -20.3148   15.4312 C   0  0  0  0  0  0  0  0  0  0  0  0
    7.4203  -20.0998   13.9656 C   0  0  0  0  0  0  0  0  0  0  0  0
    8.9335  -16.2008   16.3411 H   0  0  0  0  0  0  0  0  0  0  0  0
   10.1586  -14.3451   17.4803 H   0  0  0  0  0  0  0  0  0  0  0  0
   12.8834  -10.6535   12.9638 H   0  0  0  0  0  0  0  0  0  0  0  0
   12.0661  -13.1131   12.1019 H   0  0  0  0  0  0  0  0  0  0  0  0
   10.8565  -15.1244   13.3028 H   0  0  0  0  0  0  0  0  0  0  0  0
    7.7350  -17.3678   16.1057 H   0  0  0  0  0  0  0  0  0  0  0  0
    5.3470  -17.4839   15.0373 H   0  0  0  0  0  0  0  0  0  0  0  0
    5.4534  -18.9878   12.5533 H   0  0  0  0  0  0  0  0  0  0  0  0
    4.3352  -17.7541   13.0493 H   0  0  0  0  0  0  0  0  0  0  0  0
    4.0712  -20.7390   13.3952 H   0  0  0  0  0  0  0  0  0  0  0  0
    2.8052  -19.5956   12.9030 H   0  0  0  0  0  0  0  0  0  0  0  0
    2.8702  -20.4405   15.4680 H   0  0  0  0  0  0  0  0  0  0  0  0
    2.6926  -18.6897   15.1827 H   0  0  0  0  0  0  0  0  0  0  0  0
    8.1650  -20.4374   16.0210 H   0  0  0  0  0  0  0  0  0  0  0  0
    6.4415  -20.9359   15.7666 H   0  0  0  0  0  0  0  0  0  0  0  0
    6.7241  -20.6280   13.3265 H   0  0  0  0  0  0  0  0  0  0  0  0
    8.4247  -20.0599   13.5581 H   0  0  0  0  0  0  0  0  0  0  0  0
  1  2  2  0
  2  3  1  0
  3  4  1  0
  4  5  1  0
  5  6  2  0
  6  7  1  0
  7  8  2  0
  8  9  1  0
  9 10  2  0
 10 11  1  0
 11 12  1  0
  2 13  1  0
 13 14  1  0
 14 15  1  0
 15 16  1  0
 16 17  1  0
 17 18  1  0
 18 19  1  0
 14 20  1  0
 20 21  1  0
 12  4  2  0
 21 14  1  0
 11  7  1  0
 19 15  1  0
  3 22  1  0
  5 23  1  0
  9 24  1  0
 10 25  1  0
 12 26  1  0
 13 27  1  0
 15 28  1  0
 16 29  1  0
 16 30  1  0
 17 31  1  0
 17 32  1  0
 18 33  1  0
 18 34  1  0
 20 35  1  0
 20 36  1  0
 21 37  1  0
 21 38  1  0
M  END
>  <Energy>  (650) 
37.854329743515358

>  <compound_id>  (650) 
13915

>  <target_id>  (650) 
1

>  <reference_id>  (650) 
28

>  <inspiration_ids>  (650) 
[106, 28]

>  <energy_score>  (650) 
-27.869931617074087

>  <distance_score>  (650) 
16.33995147775504

>  <path>  (650) 
/opt/xchem-fragalysis-2/maxwin/BulkDock/SCRATCH/511017/C13915-P28/C13915-P28.minimised.mol

>  <scratch_subdir>  (650) 
/opt/xchem-fragalysis-2/maxwin/BulkDock/SCRATCH/511017/C13915-P28

>  <fragmenstein_runtime>  (650) 
20.384803771972656

>  <fragmenstein_outcome>  (650) 
too moved

>  <fragmenstein_mode>  (650) 
expansion

>  <fragmenstein_error>  (650) 


$$$$
C39961-P40
     RDKit          3D

 52 55  0  0  0  0  0  0  0  0999 V2000
    9.7811    5.5454   18.5058 C   0  0  0  0  0  0  0  0  0  0  0  0
    9.4684    4.5650   17.0138 S   0  0  0  0  0  0  0  0  0  0  0  0
    8.2285    3.4075   17.6733 C   0  0  0  0  0  0  0  0  0  0  0  0
    8.7228    2.3442   18.6783 C   0  0  0  0  0  0  0  0  0  0  0  0
    8.7517    0.8766   18.1480 C   0  0  0  0  0  0  0  0  0  0  0  0
    8.1811   -0.3080   19.0444 N   0  0  0  0  0  0  0  0  0  0  0  0
    6.9785   -0.4136   19.9132 C   0  0  0  0  0  0  0  0  0  0  0  0
    6.3586    0.4858   20.0773 O   0  0  0  0  0  0  0  0  0  0  0  0
    6.0615   -2.0316   20.7947 C   0  0  0  0  0  0  0  0  0  0  0  0
    5.0355   -1.9547   22.5759 C   0  0  0  0  0  0  0  0  0  0  0  0
    4.9160   -1.7796   24.3284 C   0  0  0  0  0  0  0  0  0  0  0  0
    4.6522   -0.5703   24.9652 C   0  0  0  0  0  0  0  0  0  0  0  0
    4.3477   -0.7723   26.2786 N   0  0  0  0  0  0  0  0  0  0  0  0
    4.3754   -2.1063   26.5824 C   0  0  0  0  0  0  0  0  0  0  0  0
    4.0231   -2.7413   27.7867 C   0  0  0  0  0  0  0  0  0  0  0  0
    4.1537   -4.1251   27.8665 C   0  0  0  0  0  0  0  0  0  0  0  0
    4.6591   -4.8348   26.7875 C   0  0  0  0  0  0  0  0  0  0  0  0
    5.0087   -4.1761   25.5935 C   0  0  0  0  0  0  0  0  0  0  0  0
    4.8250   -2.7776   25.4348 C   0  0  0  0  0  0  0  0  0  0  0  0
    9.5170    0.5276   16.8754 C   0  0  0  0  0  0  0  0  0  0  0  0
    9.7320   -0.7149   16.4857 N   0  0  0  0  0  0  0  0  0  0  0  0
   10.6464   -0.6537   15.4659 C   0  0  0  0  0  0  0  0  0  0  0  0
   11.3401   -1.6934   14.8330 C   0  0  0  0  0  0  0  0  0  0  0  0
   12.3438   -1.3608   13.9199 C   0  0  0  0  0  0  0  0  0  0  0  0
   12.6297   -0.0238   13.6337 C   0  0  0  0  0  0  0  0  0  0  0  0
   11.9272    1.0260   14.2431 C   0  0  0  0  0  0  0  0  0  0  0  0
   10.9444    0.6687   15.1662 C   0  0  0  0  0  0  0  0  0  0  0  0
   10.1344    1.4055   16.0065 N   0  0  0  0  0  0  0  0  0  0  0  0
   10.1935    4.9277   19.3064 H   0  0  0  0  0  0  0  0  0  0  0  0
    8.8571    6.0194   18.8472 H   0  0  0  0  0  0  0  0  0  0  0  0
   10.5050    6.3300   18.2698 H   0  0  0  0  0  0  0  0  0  0  0  0
    7.8033    2.9460   16.7822 H   0  0  0  0  0  0  0  0  0  0  0  0
    7.4363    4.0089   18.1309 H   0  0  0  0  0  0  0  0  0  0  0  0
    9.6447    2.6793   19.1464 H   0  0  0  0  0  0  0  0  0  0  0  0
    7.9920    2.3524   19.4881 H   0  0  0  0  0  0  0  0  0  0  0  0
    7.8240    0.9171   17.5951 H   0  0  0  0  0  0  0  0  0  0  0  0
    8.6426   -1.1628   19.0839 H   0  0  0  0  0  0  0  0  0  0  0  0
    6.8170   -2.7896   21.1613 H   0  0  0  0  0  0  0  0  0  0  0  0
    5.4270   -2.6378   20.1374 H   0  0  0  0  0  0  0  0  0  0  0  0
    4.9642   -0.8680   22.5160 H   0  0  0  0  0  0  0  0  0  0  0  0
    5.8052   -2.6792   22.9604 H   0  0  0  0  0  0  0  0  0  0  0  0
    4.5872    0.4297   24.5634 H   0  0  0  0  0  0  0  0  0  0  0  0
    4.0688   -0.0449   26.9205 H   0  0  0  0  0  0  0  0  0  0  0  0
    3.6631   -2.1677   28.6349 H   0  0  0  0  0  0  0  0  0  0  0  0
    3.9006   -4.6389   28.7884 H   0  0  0  0  0  0  0  0  0  0  0  0
    4.8169   -5.9078   26.8600 H   0  0  0  0  0  0  0  0  0  0  0  0
    5.4567   -4.7621   24.7967 H   0  0  0  0  0  0  0  0  0  0  0  0
   11.1191   -2.7285   15.0695 H   0  0  0  0  0  0  0  0  0  0  0  0
   12.9012   -2.1537   13.4285 H   0  0  0  0  0  0  0  0  0  0  0  0
   13.4129    0.2088   12.9151 H   0  0  0  0  0  0  0  0  0  0  0  0
   12.1583    2.0615   14.0214 H   0  0  0  0  0  0  0  0  0  0  0  0
   10.1514    2.4151   16.0924 H   0  0  0  0  0  0  0  0  0  0  0  0
  1  2  1  0
  2  3  1  0
  3  4  1  0
  4  5  1  0
  5  6  1  0
  6  7  1  0
  7  8  2  0
  7  9  1  0
  9 10  1  0
 10 11  1  0
 11 12  2  0
 12 13  1  0
 13 14  1  0
 14 15  2  0
 15 16  1  0
 16 17  2  0
 17 18  1  0
 18 19  2  0
  5 20  1  0
 20 21  2  0
 21 22  1  0
 22 23  2  0
 23 24  1  0
 24 25  2  0
 25 26  1  0
 26 27  2  0
 27 28  1  0
 19 11  1  0
 28 20  1  0
 19 14  1  0
 27 22  1  0
  1 29  1  0
  1 30  1  0
  1 31  1  0
  3 32  1  0
  3 33  1  0
  4 34  1  0
  4 35  1  0
  5 36  1  0
  6 37  1  0
  9 38  1  0
  9 39  1  0
 10 40  1  0
 10 41  1  0
 12 42  1  0
 13 43  1  0
 15 44  1  0
 16 45  1  0
 17 46  1  0
 18 47  1  0
 23 48  1  0
 24 49  1  0
 25 50  1  0
 26 51  1  0
 28 52  1  0
M  END
>  <Energy>  (651) 
314.65204333091788

>  <compound_id>  (651) 
39961

>  <target_id>  (651) 
1

>  <reference_id>  (651) 
40

>  <inspiration_ids>  (651) 
[40, 103]

>  <energy_score>  (651) 
286.14535220614874

>  <distance_score>  (651) 
5.1078335129269625

>  <path>  (651) 
/opt/xchem-fragalysis-2/maxwin/BulkDock/SCRATCH/511017/C39961-P40/C39961-P40.minimised.mol

>  <scratch_subdir>  (651) 
/opt/xchem-fragalysis-2/maxwin/BulkDock/SCRATCH/511017/C39961-P40

>  <fragmenstein_runtime>  (651) 
8.295843362808228

>  <fragmenstein_outcome>  (651) 
too moved

>  <fragmenstein_mode>  (651) 
expansion

>  <fragmenstein_error>  (651) 


$$$$
C39961-P103
     RDKit          3D

 52 55  0  0  0  0  0  0  0  0999 V2000
   10.0036    5.5618   17.0248 C   0  0  0  0  0  0  0  0  0  0  0  0
   10.6261    4.1645   16.0568 S   0  0  0  0  0  0  0  0  0  0  0  0
    9.0486    3.5052   15.4521 C   0  0  0  0  0  0  0  0  0  0  0  0
    8.2338    2.5731   16.3702 C   0  0  0  0  0  0  0  0  0  0  0  0
    8.8227    1.2118   16.7674 C   0  0  0  0  0  0  0  0  0  0  0  0
    8.1341    0.3400   17.7681 N   0  0  0  0  0  0  0  0  0  0  0  0
    7.4280    0.6886   19.2119 C   0  0  0  0  0  0  0  0  0  0  0  0
    7.3086    1.7844   19.6075 O   0  0  0  0  0  0  0  0  0  0  0  0
    6.8660   -0.5428   20.5502 C   0  0  0  0  0  0  0  0  0  0  0  0
    5.4782   -1.3633   21.8158 C   0  0  0  0  0  0  0  0  0  0  0  0
    5.0874   -1.4694   23.6809 C   0  0  0  0  0  0  0  0  0  0  0  0
    5.6718   -2.2635   24.6049 C   0  0  0  0  0  0  0  0  0  0  0  0
    5.6970   -1.6772   25.8856 N   0  0  0  0  0  0  0  0  0  0  0  0
    4.7506   -0.6465   25.9366 C   0  0  0  0  0  0  0  0  0  0  0  0
    4.1815   -0.1530   27.1279 C   0  0  0  0  0  0  0  0  0  0  0  0
    3.0878   -0.8709   27.5974 C   0  0  0  0  0  0  0  0  0  0  0  0
    2.6414   -1.9286   26.8373 C   0  0  0  0  0  0  0  0  0  0  0  0
    3.1597   -2.1037   25.5226 C   0  0  0  0  0  0  0  0  0  0  0  0
    4.0320   -1.1716   24.8385 C   0  0  0  0  0  0  0  0  0  0  0  0
    9.7088    0.3782   15.8883 C   0  0  0  0  0  0  0  0  0  0  0  0
    9.7199   -0.9457   15.8728 N   0  0  0  0  0  0  0  0  0  0  0  0
   11.0209   -1.2971   15.5749 C   0  0  0  0  0  0  0  0  0  0  0  0
   11.6346   -2.5547   15.6106 C   0  0  0  0  0  0  0  0  0  0  0  0
   13.0300   -2.6106   15.5606 C   0  0  0  0  0  0  0  0  0  0  0  0
   13.7939   -1.4645   15.3453 C   0  0  0  0  0  0  0  0  0  0  0  0
   13.1905   -0.2120   15.2149 C   0  0  0  0  0  0  0  0  0  0  0  0
   11.8040   -0.1722   15.3660 C   0  0  0  0  0  0  0  0  0  0  0  0
   10.9161    0.8708   15.4217 N   0  0  0  0  0  0  0  0  0  0  0  0
    9.2543    5.2363   17.7495 H   0  0  0  0  0  0  0  0  0  0  0  0
    9.5640    6.3106   16.3607 H   0  0  0  0  0  0  0  0  0  0  0  0
   10.8344    6.0234   17.5648 H   0  0  0  0  0  0  0  0  0  0  0  0
    9.3425    2.9972   14.5370 H   0  0  0  0  0  0  0  0  0  0  0  0
    8.4183    4.3475   15.1452 H   0  0  0  0  0  0  0  0  0  0  0  0
    7.9954    3.1324   17.2845 H   0  0  0  0  0  0  0  0  0  0  0  0
    7.2586    2.4328   15.9154 H   0  0  0  0  0  0  0  0  0  0  0  0
    9.5992    1.6138   17.4088 H   0  0  0  0  0  0  0  0  0  0  0  0
    8.1967   -0.5959   17.6840 H   0  0  0  0  0  0  0  0  0  0  0  0
    7.7419   -1.0654   20.6642 H   0  0  0  0  0  0  0  0  0  0  0  0
    7.0501    0.3385   21.1301 H   0  0  0  0  0  0  0  0  0  0  0  0
    4.7862   -0.5212   21.8091 H   0  0  0  0  0  0  0  0  0  0  0  0
    5.5075   -2.4097   21.5006 H   0  0  0  0  0  0  0  0  0  0  0  0
    6.2644   -3.1363   24.4372 H   0  0  0  0  0  0  0  0  0  0  0  0
    6.1046   -2.1429   26.6824 H   0  0  0  0  0  0  0  0  0  0  0  0
    4.7452    0.4873   27.7973 H   0  0  0  0  0  0  0  0  0  0  0  0
    2.6886   -0.6883   28.5884 H   0  0  0  0  0  0  0  0  0  0  0  0
    1.9324   -2.6432   27.2378 H   0  0  0  0  0  0  0  0  0  0  0  0
    3.0433   -3.0532   25.0167 H   0  0  0  0  0  0  0  0  0  0  0  0
   11.0568   -3.4579   15.7617 H   0  0  0  0  0  0  0  0  0  0  0  0
   13.5238   -3.5639   15.7170 H   0  0  0  0  0  0  0  0  0  0  0  0
   14.8776   -1.5450   15.2887 H   0  0  0  0  0  0  0  0  0  0  0  0
   13.7793    0.6862   15.0636 H   0  0  0  0  0  0  0  0  0  0  0  0
   11.1912    1.8446   15.4480 H   0  0  0  0  0  0  0  0  0  0  0  0
  1  2  1  0
  2  3  1  0
  3  4  1  0
  4  5  1  0
  5  6  1  0
  6  7  1  0
  7  8  2  0
  7  9  1  0
  9 10  1  0
 10 11  1  0
 11 12  2  0
 12 13  1  0
 13 14  1  0
 14 15  2  0
 15 16  1  0
 16 17  2  0
 17 18  1  0
 18 19  2  0
  5 20  1  0
 20 21  2  0
 21 22  1  0
 22 23  2  0
 23 24  1  0
 24 25  2  0
 25 26  1  0
 26 27  2  0
 27 28  1  0
 19 11  1  0
 28 20  1  0
 19 14  1  0
 27 22  1  0
  1 29  1  0
  1 30  1  0
  1 31  1  0
  3 32  1  0
  3 33  1  0
  4 34  1  0
  4 35  1  0
  5 36  1  0
  6 37  1  0
  9 38  1  0
  9 39  1  0
 10 40  1  0
 10 41  1  0
 12 42  1  0
 13 43  1  0
 15 44  1  0
 16 45  1  0
 17 46  1  0
 18 47  1  0
 23 48  1  0
 24 49  1  0
 25 50  1  0
 26 51  1  0
 28 52  1  0
M  END
>  <Energy>  (652) 
421.37956556426195

>  <compound_id>  (652) 
39961

>  <target_id>  (652) 
1

>  <reference_id>  (652) 
103

>  <inspiration_ids>  (652) 
[40, 103]

>  <energy_score>  (652) 
392.8728744394921

>  <distance_score>  (652) 
5.112196330691023

>  <path>  (652) 
/opt/xchem-fragalysis-2/maxwin/BulkDock/SCRATCH/511017/C39961-P103/C39961-P103.minimised.mol

>  <scratch_subdir>  (652) 
/opt/xchem-fragalysis-2/maxwin/BulkDock/SCRATCH/511017/C39961-P103

>  <fragmenstein_runtime>  (652) 
14.122150897979736

>  <fragmenstein_outcome>  (652) 
too moved

>  <fragmenstein_mode>  (652) 
expansion

>  <fragmenstein_error>  (652) 


$$$$
C39962-P40
     RDKit          3D

 42 45  0  0  0  0  0  0  0  0999 V2000
    7.6209    1.7463   19.9776 C   0  0  0  0  0  0  0  0  0  0  0  0
    7.0522    0.2733   19.6487 C   0  0  0  0  0  0  0  0  0  0  0  0
    6.4519   -0.8345   20.6037 N   0  0  0  0  0  0  0  0  0  0  0  0
    5.1553   -0.6645   22.0369 N   0  0  0  0  0  0  0  0  0  0  0  0
    5.0166   -1.5032   23.4822 C   0  0  0  0  0  0  0  0  0  0  0  0
    5.6537   -2.4602   23.8665 O   0  0  0  0  0  0  0  0  0  0  0  0
    4.0645   -0.9970   24.6375 C   0  0  0  0  0  0  0  0  0  0  0  0
    4.1064   -1.8671   26.0291 C   0  0  0  0  0  0  0  0  0  0  0  0
    4.9342   -2.9321   26.3543 C   0  0  0  0  0  0  0  0  0  0  0  0
    4.5675   -3.4770   27.5500 N   0  0  0  0  0  0  0  0  0  0  0  0
    3.4970   -2.8037   28.0692 C   0  0  0  0  0  0  0  0  0  0  0  0
    2.7731   -3.0512   29.2453 C   0  0  0  0  0  0  0  0  0  0  0  0
    1.7150   -2.1975   29.5509 C   0  0  0  0  0  0  0  0  0  0  0  0
    1.4177   -1.1244   28.7201 C   0  0  0  0  0  0  0  0  0  0  0  0
    2.1688   -0.8822   27.5581 C   0  0  0  0  0  0  0  0  0  0  0  0
    3.2227   -1.7478   27.1916 C   0  0  0  0  0  0  0  0  0  0  0  0
    7.5224    0.4398   18.1176 C   0  0  0  0  0  0  0  0  0  0  0  0
    6.9845    0.0143   16.9710 N   0  0  0  0  0  0  0  0  0  0  0  0
    8.0885   -0.0678   16.1160 C   0  0  0  0  0  0  0  0  0  0  0  0
    8.4749   -1.0485   15.2033 C   0  0  0  0  0  0  0  0  0  0  0  0
    9.8375   -1.0819   14.8607 C   0  0  0  0  0  0  0  0  0  0  0  0
   10.6654    0.0188   15.0481 C   0  0  0  0  0  0  0  0  0  0  0  0
   10.2226    1.1006   15.7945 C   0  0  0  0  0  0  0  0  0  0  0  0
    9.0266    0.8737   16.4626 C   0  0  0  0  0  0  0  0  0  0  0  0
    8.5552    1.3205   17.6572 N   0  0  0  0  0  0  0  0  0  0  0  0
    8.6741    1.7076   20.2683 H   0  0  0  0  0  0  0  0  0  0  0  0
    7.5668    2.5319   19.2105 H   0  0  0  0  0  0  0  0  0  0  0  0
    6.9349    2.1432   20.6658 H   0  0  0  0  0  0  0  0  0  0  0  0
    4.5281    0.1476   22.0503 H   0  0  0  0  0  0  0  0  0  0  0  0
    3.1065   -0.5334   24.5317 H   0  0  0  0  0  0  0  0  0  0  0  0
    4.6447   -0.1135   24.9695 H   0  0  0  0  0  0  0  0  0  0  0  0
    5.7630   -3.3879   25.8278 H   0  0  0  0  0  0  0  0  0  0  0  0
    5.0257   -4.2686   27.9775 H   0  0  0  0  0  0  0  0  0  0  0  0
    3.0268   -3.8778   29.8994 H   0  0  0  0  0  0  0  0  0  0  0  0
    1.1262   -2.3617   30.4492 H   0  0  0  0  0  0  0  0  0  0  0  0
    0.5915   -0.4610   28.9648 H   0  0  0  0  0  0  0  0  0  0  0  0
    1.9124   -0.0397   26.9248 H   0  0  0  0  0  0  0  0  0  0  0  0
    7.8116   -1.8572   14.9243 H   0  0  0  0  0  0  0  0  0  0  0  0
   10.2341   -1.9503   14.3409 H   0  0  0  0  0  0  0  0  0  0  0  0
   11.6673    0.0151   14.6261 H   0  0  0  0  0  0  0  0  0  0  0  0
   10.8639    1.9450   16.0045 H   0  0  0  0  0  0  0  0  0  0  0  0
    9.0944    1.9640   18.2160 H   0  0  0  0  0  0  0  0  0  0  0  0
  1  2  1  0
  2  3  2  3
  3  4  1  0
  4  5  1  0
  5  6  2  0
  5  7  1  0
  7  8  1  0
  8  9  2  0
  9 10  1  0
 10 11  1  0
 11 12  2  0
 12 13  1  0
 13 14  2  0
 14 15  1  0
 15 16  2  0
  2 17  1  0
 17 18  2  0
 18 19  1  0
 19 20  2  0
 20 21  1  0
 21 22  2  0
 22 23  1  0
 23 24  2  0
 24 25  1  0
 16  8  1  0
 25 17  1  0
 16 11  1  0
 24 19  1  0
  1 26  1  0
  1 27  1  0
  1 28  1  0
  4 29  1  0
  7 30  1  0
  7 31  1  0
  9 32  1  0
 10 33  1  0
 12 34  1  0
 13 35  1  0
 14 36  1  0
 15 37  1  0
 20 38  1  0
 21 39  1  0
 22 40  1  0
 23 41  1  0
 25 42  1  0
M  END
>  <Energy>  (653) 
406.77208078394409

>  <compound_id>  (653) 
39962

>  <target_id>  (653) 
1

>  <reference_id>  (653) 
40

>  <inspiration_ids>  (653) 
[40, 103]

>  <energy_score>  (653) 
265.10522531676304

>  <distance_score>  (653) 
5.166490555757054

>  <path>  (653) 
/opt/xchem-fragalysis-2/maxwin/BulkDock/SCRATCH/511017/C39962-P40/C39962-P40.minimised.mol

>  <scratch_subdir>  (653) 
/opt/xchem-fragalysis-2/maxwin/BulkDock/SCRATCH/511017/C39962-P40

>  <fragmenstein_runtime>  (653) 
8.628632068634033

>  <fragmenstein_outcome>  (653) 
too moved

>  <fragmenstein_mode>  (653) 
expansion

>  <fragmenstein_error>  (653) 


$$$$
C39962-P103
     RDKit          3D

 42 45  0  0  0  0  0  0  0  0999 V2000
    7.5418    1.4579   21.0746 C   0  0  0  0  0  0  0  0  0  0  0  0
    7.2742   -0.0563   20.1603 C   0  0  0  0  0  0  0  0  0  0  0  0
    6.6767   -1.0963   20.9601 N   0  0  0  0  0  0  0  0  0  0  0  0
    5.1945   -1.1747   22.1466 N   0  0  0  0  0  0  0  0  0  0  0  0
    5.0520   -1.8555   23.6768 C   0  0  0  0  0  0  0  0  0  0  0  0
    5.8517   -2.5056   24.2930 O   0  0  0  0  0  0  0  0  0  0  0  0
    3.7094   -1.8082   24.4588 C   0  0  0  0  0  0  0  0  0  0  0  0
    3.4692   -1.0435   25.7733 C   0  0  0  0  0  0  0  0  0  0  0  0
    3.4617    0.3238   25.9424 C   0  0  0  0  0  0  0  0  0  0  0  0
    3.2950    0.6340   27.2613 N   0  0  0  0  0  0  0  0  0  0  0  0
    2.9217   -0.4782   27.9651 C   0  0  0  0  0  0  0  0  0  0  0  0
    2.5158   -0.6038   29.3053 C   0  0  0  0  0  0  0  0  0  0  0  0
    2.0670   -1.8496   29.7483 C   0  0  0  0  0  0  0  0  0  0  0  0
    2.0041   -2.9180   28.8701 C   0  0  0  0  0  0  0  0  0  0  0  0
    2.4329   -2.7562   27.5451 C   0  0  0  0  0  0  0  0  0  0  0  0
    2.9544   -1.5379   27.0589 C   0  0  0  0  0  0  0  0  0  0  0  0
    7.7804    0.1507   18.3909 C   0  0  0  0  0  0  0  0  0  0  0  0
    8.6050   -0.4836   17.5250 N   0  0  0  0  0  0  0  0  0  0  0  0
    9.1265    0.2492   16.4754 C   0  0  0  0  0  0  0  0  0  0  0  0
    9.9274   -0.1815   15.4098 C   0  0  0  0  0  0  0  0  0  0  0  0
   10.5794    0.7871   14.6456 C   0  0  0  0  0  0  0  0  0  0  0  0
   10.4207    2.1417   14.9435 C   0  0  0  0  0  0  0  0  0  0  0  0
    9.5705    2.5720   15.9759 C   0  0  0  0  0  0  0  0  0  0  0  0
    8.9402    1.5757   16.7208 C   0  0  0  0  0  0  0  0  0  0  0  0
    8.1147    1.5868   17.8169 N   0  0  0  0  0  0  0  0  0  0  0  0
    8.4190    1.7134   21.6564 H   0  0  0  0  0  0  0  0  0  0  0  0
    6.7915    1.5099   21.8404 H   0  0  0  0  0  0  0  0  0  0  0  0
    7.2520    2.3048   20.5126 H   0  0  0  0  0  0  0  0  0  0  0  0
    4.3804   -0.6135   21.9489 H   0  0  0  0  0  0  0  0  0  0  0  0
    2.8805   -2.0500   23.8259 H   0  0  0  0  0  0  0  0  0  0  0  0
    3.7455   -2.8263   24.8984 H   0  0  0  0  0  0  0  0  0  0  0  0
    3.5234    1.1036   25.2112 H   0  0  0  0  0  0  0  0  0  0  0  0
    3.3001    1.5676   27.6433 H   0  0  0  0  0  0  0  0  0  0  0  0
    2.5235    0.2491   29.9757 H   0  0  0  0  0  0  0  0  0  0  0  0
    1.7357   -1.9707   30.7759 H   0  0  0  0  0  0  0  0  0  0  0  0
    1.6053   -3.8734   29.1967 H   0  0  0  0  0  0  0  0  0  0  0  0
    2.2905   -3.5578   26.8471 H   0  0  0  0  0  0  0  0  0  0  0  0
   10.0759   -1.2370   15.2071 H   0  0  0  0  0  0  0  0  0  0  0  0
   11.2179    0.4751   13.8228 H   0  0  0  0  0  0  0  0  0  0  0  0
   10.9523    2.8837   14.3509 H   0  0  0  0  0  0  0  0  0  0  0  0
    9.4524    3.6254   16.2037 H   0  0  0  0  0  0  0  0  0  0  0  0
    7.6242    2.3741   18.2009 H   0  0  0  0  0  0  0  0  0  0  0  0
  1  2  1  0
  2  3  2  3
  3  4  1  0
  4  5  1  0
  5  6  2  0
  5  7  1  0
  7  8  1  0
  8  9  2  0
  9 10  1  0
 10 11  1  0
 11 12  2  0
 12 13  1  0
 13 14  2  0
 14 15  1  0
 15 16  2  0
  2 17  1  0
 17 18  2  0
 18 19  1  0
 19 20  2  0
 20 21  1  0
 21 22  2  0
 22 23  1  0
 23 24  2  0
 24 25  1  0
 16  8  1  0
 25 17  1  0
 16 11  1  0
 24 19  1  0
  1 26  1  0
  1 27  1  0
  1 28  1  0
  4 29  1  0
  7 30  1  0
  7 31  1  0
  9 32  1  0
 10 33  1  0
 12 34  1  0
 13 35  1  0
 14 36  1  0
 15 37  1  0
 20 38  1  0
 21 39  1  0
 22 40  1  0
 23 41  1  0
 25 42  1  0
M  END
>  <Energy>  (654) 
399.4514758537473

>  <compound_id>  (654) 
39962

>  <target_id>  (654) 
1

>  <reference_id>  (654) 
103

>  <inspiration_ids>  (654) 
[40, 103]

>  <energy_score>  (654) 
257.7846203865656

>  <distance_score>  (654) 
5.518096692737364

>  <path>  (654) 
/opt/xchem-fragalysis-2/maxwin/BulkDock/SCRATCH/511017/C39962-P103/C39962-P103.minimised.mol

>  <scratch_subdir>  (654) 
/opt/xchem-fragalysis-2/maxwin/BulkDock/SCRATCH/511017/C39962-P103

>  <fragmenstein_runtime>  (654) 
10.141680002212524

>  <fragmenstein_outcome>  (654) 
too moved

>  <fragmenstein_mode>  (654) 
expansion

>  <fragmenstein_error>  (654) 


$$$$
C39963-P40
     RDKit          3D

 40 43  0  0  0  0  0  0  0  0999 V2000
    6.5150   -0.9988   20.0641 O   0  0  0  0  0  0  0  0  0  0  0  0
    5.5041   -0.7900   19.4651 C   0  0  0  0  0  0  0  0  0  0  0  0
    4.2233   -1.4238   20.0940 C   0  0  0  0  0  0  0  0  0  0  0  0
    4.4616   -1.4322   21.5481 N   0  0  0  0  0  0  0  0  0  0  0  0
    3.7097   -1.9863   22.6165 C   0  0  0  0  0  0  0  0  0  0  0  0
    2.7217   -2.6625   22.6051 O   0  0  0  0  0  0  0  0  0  0  0  0
    4.3835   -1.7159   24.0737 C   0  0  0  0  0  0  0  0  0  0  0  0
    4.9180   -2.6171   25.0187 C   0  0  0  0  0  0  0  0  0  0  0  0
    4.6235   -2.1607   26.3301 C   0  0  0  0  0  0  0  0  0  0  0  0
    4.6662   -2.7658   27.6007 C   0  0  0  0  0  0  0  0  0  0  0  0
    4.1416   -2.0746   28.6953 C   0  0  0  0  0  0  0  0  0  0  0  0
    3.6089   -0.7964   28.5354 C   0  0  0  0  0  0  0  0  0  0  0  0
    3.5984   -0.1656   27.2831 C   0  0  0  0  0  0  0  0  0  0  0  0
    4.1131   -0.8787   26.1930 C   0  0  0  0  0  0  0  0  0  0  0  0
    4.1812   -0.5651   24.8438 N   0  0  0  0  0  0  0  0  0  0  0  0
    5.2708   -0.0586   18.2814 N   0  0  0  0  0  0  0  0  0  0  0  0
    6.1315    0.5451   17.4285 C   0  0  0  0  0  0  0  0  0  0  0  0
    6.4767   -0.0117   16.2971 N   0  0  0  0  0  0  0  0  0  0  0  0
    7.7863    0.3460   16.0785 C   0  0  0  0  0  0  0  0  0  0  0  0
    8.6851   -0.1108   15.1108 C   0  0  0  0  0  0  0  0  0  0  0  0
    9.9086    0.5416   14.9719 C   0  0  0  0  0  0  0  0  0  0  0  0
   10.2122    1.6296   15.7849 C   0  0  0  0  0  0  0  0  0  0  0  0
    9.3590    2.0366   16.8240 C   0  0  0  0  0  0  0  0  0  0  0  0
    8.1626    1.3438   16.9590 C   0  0  0  0  0  0  0  0  0  0  0  0
    7.1275    1.3957   17.8613 N   0  0  0  0  0  0  0  0  0  0  0  0
    4.0853   -2.4483   19.7428 H   0  0  0  0  0  0  0  0  0  0  0  0
    3.3539   -0.8124   19.8526 H   0  0  0  0  0  0  0  0  0  0  0  0
    5.1654   -0.8604   21.9196 H   0  0  0  0  0  0  0  0  0  0  0  0
    5.2831   -3.6205   24.8420 H   0  0  0  0  0  0  0  0  0  0  0  0
    5.0666   -3.7676   27.7184 H   0  0  0  0  0  0  0  0  0  0  0  0
    4.1508   -2.5363   29.6788 H   0  0  0  0  0  0  0  0  0  0  0  0
    3.2011   -0.2726   29.3970 H   0  0  0  0  0  0  0  0  0  0  0  0
    3.1781    0.8272   27.1634 H   0  0  0  0  0  0  0  0  0  0  0  0
    3.7729    0.2627   24.4321 H   0  0  0  0  0  0  0  0  0  0  0  0
    4.3003   -0.1646   18.0159 H   0  0  0  0  0  0  0  0  0  0  0  0
    8.3831   -0.9062   14.4402 H   0  0  0  0  0  0  0  0  0  0  0  0
   10.5920    0.2310   14.1854 H   0  0  0  0  0  0  0  0  0  0  0  0
   11.1375    2.1744   15.6115 H   0  0  0  0  0  0  0  0  0  0  0  0
    9.6070    2.8727   17.4683 H   0  0  0  0  0  0  0  0  0  0  0  0
    7.1138    1.9011   18.7354 H   0  0  0  0  0  0  0  0  0  0  0  0
  1  2  2  0
  2  3  1  0
  3  4  1  0
  4  5  1  0
  5  6  2  0
  5  7  1  0
  7  8  2  0
  8  9  1  0
  9 10  2  0
 10 11  1  0
 11 12  2  0
 12 13  1  0
 13 14  2  0
 14 15  1  0
  2 16  1  0
 16 17  1  0
 17 18  2  0
 18 19  1  0
 19 20  2  0
 20 21  1  0
 21 22  2  0
 22 23  1  0
 23 24  2  0
 24 25  1  0
 15  7  1  0
 25 17  1  0
 14  9  1  0
 24 19  1  0
  3 26  1  0
  3 27  1  0
  4 28  1  0
  8 29  1  0
 10 30  1  0
 11 31  1  0
 12 32  1  0
 13 33  1  0
 15 34  1  0
 16 35  1  0
 20 36  1  0
 21 37  1  0
 22 38  1  0
 23 39  1  0
 25 40  1  0
M  END
>  <Energy>  (655) 
46.6262961835792

>  <compound_id>  (655) 
39963

>  <target_id>  (655) 
1

>  <reference_id>  (655) 
40

>  <inspiration_ids>  (655) 
[40, 103]

>  <energy_score>  (655) 
17.045097288047373

>  <distance_score>  (655) 
7.513142463667595

>  <path>  (655) 
/opt/xchem-fragalysis-2/maxwin/BulkDock/SCRATCH/511017/C39963-P40/C39963-P40.minimised.mol

>  <scratch_subdir>  (655) 
/opt/xchem-fragalysis-2/maxwin/BulkDock/SCRATCH/511017/C39963-P40

>  <fragmenstein_runtime>  (655) 
10.559348821640015

>  <fragmenstein_outcome>  (655) 
too moved

>  <fragmenstein_mode>  (655) 
expansion

>  <fragmenstein_error>  (655) 


$$$$
C39963-P103
     RDKit          3D

 40 43  0  0  0  0  0  0  0  0999 V2000
   12.4068   -1.9999   25.4810 O   0  0  0  0  0  0  0  0  0  0  0  0
   12.2569   -3.1751   25.2898 C   0  0  0  0  0  0  0  0  0  0  0  0
   11.7150   -4.0665   26.4727 C   0  0  0  0  0  0  0  0  0  0  0  0
   10.3573   -3.9659   27.0025 N   0  0  0  0  0  0  0  0  0  0  0  0
    9.7246   -2.9418   27.7717 C   0  0  0  0  0  0  0  0  0  0  0  0
   10.1184   -1.8681   28.1125 O   0  0  0  0  0  0  0  0  0  0  0  0
    8.4076   -3.3736   28.2820 C   0  0  0  0  0  0  0  0  0  0  0  0
    8.0126   -4.5374   28.9364 C   0  0  0  0  0  0  0  0  0  0  0  0
    6.6942   -4.3510   29.4593 C   0  0  0  0  0  0  0  0  0  0  0  0
    5.8363   -5.1100   30.2843 C   0  0  0  0  0  0  0  0  0  0  0  0
    4.5783   -4.5930   30.6338 C   0  0  0  0  0  0  0  0  0  0  0  0
    4.1649   -3.3482   30.1667 C   0  0  0  0  0  0  0  0  0  0  0  0
    5.0036   -2.5753   29.3580 C   0  0  0  0  0  0  0  0  0  0  0  0
    6.2676   -3.0948   29.0384 C   0  0  0  0  0  0  0  0  0  0  0  0
    7.3055   -2.5369   28.3197 N   0  0  0  0  0  0  0  0  0  0  0  0
   12.5842   -4.0007   24.1326 N   0  0  0  0  0  0  0  0  0  0  0  0
   13.2402   -3.6927   22.9631 C   0  0  0  0  0  0  0  0  0  0  0  0
   14.0448   -2.6840   22.7005 N   0  0  0  0  0  0  0  0  0  0  0  0
   14.3116   -2.7387   21.3438 C   0  0  0  0  0  0  0  0  0  0  0  0
   15.0127   -1.8517   20.5093 C   0  0  0  0  0  0  0  0  0  0  0  0
   15.0882   -2.1215   19.1331 C   0  0  0  0  0  0  0  0  0  0  0  0
   14.4820   -3.2560   18.5931 C   0  0  0  0  0  0  0  0  0  0  0  0
   13.7869   -4.1533   19.4097 C   0  0  0  0  0  0  0  0  0  0  0  0
   13.7245   -3.8594   20.7760 C   0  0  0  0  0  0  0  0  0  0  0  0
   13.1039   -4.4755   21.8362 N   0  0  0  0  0  0  0  0  0  0  0  0
   11.8651   -5.1258   26.2389 H   0  0  0  0  0  0  0  0  0  0  0  0
   12.3818   -3.8488   27.3172 H   0  0  0  0  0  0  0  0  0  0  0  0
    9.6942   -4.7101   26.8375 H   0  0  0  0  0  0  0  0  0  0  0  0
    8.6543   -5.3873   29.1244 H   0  0  0  0  0  0  0  0  0  0  0  0
    6.1647   -6.0650   30.6787 H   0  0  0  0  0  0  0  0  0  0  0  0
    3.9180   -5.1529   31.2915 H   0  0  0  0  0  0  0  0  0  0  0  0
    3.1858   -2.9627   30.4425 H   0  0  0  0  0  0  0  0  0  0  0  0
    4.6896   -1.5994   29.0005 H   0  0  0  0  0  0  0  0  0  0  0  0
    7.2929   -1.6091   27.9189 H   0  0  0  0  0  0  0  0  0  0  0  0
   12.2420   -4.9349   24.2870 H   0  0  0  0  0  0  0  0  0  0  0  0
   15.4664   -0.9633   20.9350 H   0  0  0  0  0  0  0  0  0  0  0  0
   15.6228   -1.4312   18.4848 H   0  0  0  0  0  0  0  0  0  0  0  0
   14.5432   -3.4381   17.5223 H   0  0  0  0  0  0  0  0  0  0  0  0
   13.2836   -5.0129   18.9904 H   0  0  0  0  0  0  0  0  0  0  0  0
   12.5183   -5.2882   21.7609 H   0  0  0  0  0  0  0  0  0  0  0  0
  1  2  2  0
  2  3  1  0
  3  4  1  0
  4  5  1  0
  5  6  2  0
  5  7  1  0
  7  8  2  0
  8  9  1  0
  9 10  2  0
 10 11  1  0
 11 12  2  0
 12 13  1  0
 13 14  2  0
 14 15  1  0
  2 16  1  0
 16 17  1  0
 17 18  2  0
 18 19  1  0
 19 20  2  0
 20 21  1  0
 21 22  2  0
 22 23  1  0
 23 24  2  0
 24 25  1  0
 15  7  1  0
 25 17  1  0
 14  9  1  0
 24 19  1  0
  3 26  1  0
  3 27  1  0
  4 28  1  0
  8 29  1  0
 10 30  1  0
 11 31  1  0
 12 32  1  0
 13 33  1  0
 15 34  1  0
 16 35  1  0
 20 36  1  0
 21 37  1  0
 22 38  1  0
 23 39  1  0
 25 40  1  0
M  END
>  <Energy>  (656) 
19.410853102115304

>  <compound_id>  (656) 
39963

>  <target_id>  (656) 
1

>  <reference_id>  (656) 
103

>  <inspiration_ids>  (656) 
[40, 103]

>  <energy_score>  (656) 
-10.170345793413219

>  <distance_score>  (656) 
7.714035406446433

>  <path>  (656) 
/opt/xchem-fragalysis-2/maxwin/BulkDock/SCRATCH/511017/C39963-P103/C39963-P103.minimised.mol

>  <scratch_subdir>  (656) 
/opt/xchem-fragalysis-2/maxwin/BulkDock/SCRATCH/511017/C39963-P103

>  <fragmenstein_runtime>  (656) 
15.242366552352905

>  <fragmenstein_outcome>  (656) 
too moved

>  <fragmenstein_mode>  (656) 
expansion

>  <fragmenstein_error>  (656) 


$$$$
C39964-P40
     RDKit          3D

 52 55  0  0  0  0  0  0  0  0999 V2000
    8.6704    6.1066   16.8772 C   0  0  0  0  0  0  0  0  0  0  0  0
    8.1385    5.0136   18.2162 S   0  0  0  0  0  0  0  0  0  0  0  0
    8.6833    3.4251   17.4914 C   0  0  0  0  0  0  0  0  0  0  0  0
    8.5053    2.2983   18.5107 C   0  0  0  0  0  0  0  0  0  0  0  0
    8.8196    0.8539   18.0334 C   0  0  0  0  0  0  0  0  0  0  0  0
    8.2054   -0.3177   18.9762 N   0  0  0  0  0  0  0  0  0  0  0  0
    7.0172   -0.3655   19.8634 C   0  0  0  0  0  0  0  0  0  0  0  0
    6.4425    0.5558   20.0161 O   0  0  0  0  0  0  0  0  0  0  0  0
    6.0466   -1.9166   20.7925 C   0  0  0  0  0  0  0  0  0  0  0  0
    5.1087   -2.0661   22.6510 C   0  0  0  0  0  0  0  0  0  0  0  0
    5.1934   -2.2347   24.3879 N   0  0  0  0  0  0  0  0  0  0  0  0
    5.3842   -3.4830   25.0352 C   0  0  0  0  0  0  0  0  0  0  0  0
    4.8937   -3.4830   26.3076 C   0  0  0  0  0  0  0  0  0  0  0  0
    4.3880   -2.1990   26.5443 C   0  0  0  0  0  0  0  0  0  0  0  0
    3.7330   -1.6589   27.6722 C   0  0  0  0  0  0  0  0  0  0  0  0
    3.3357   -0.3290   27.6636 C   0  0  0  0  0  0  0  0  0  0  0  0
    3.6153    0.4601   26.5568 C   0  0  0  0  0  0  0  0  0  0  0  0
    4.2616   -0.0586   25.4207 C   0  0  0  0  0  0  0  0  0  0  0  0
    4.6257   -1.4117   25.3898 C   0  0  0  0  0  0  0  0  0  0  0  0
    8.9285    0.6462   16.4922 C   0  0  0  0  0  0  0  0  0  0  0  0
    9.7646    1.4024   15.7740 N   0  0  0  0  0  0  0  0  0  0  0  0
   10.5989    0.5133   15.1393 C   0  0  0  0  0  0  0  0  0  0  0  0
   11.8283    0.7157   14.4991 C   0  0  0  0  0  0  0  0  0  0  0  0
   12.5725   -0.4075   14.1105 C   0  0  0  0  0  0  0  0  0  0  0  0
   12.0917   -1.6994   14.3316 C   0  0  0  0  0  0  0  0  0  0  0  0
   10.8392   -1.9131   14.9166 C   0  0  0  0  0  0  0  0  0  0  0  0
   10.1213   -0.7773   15.3036 C   0  0  0  0  0  0  0  0  0  0  0  0
    8.8659   -0.5630   15.8316 N   0  0  0  0  0  0  0  0  0  0  0  0
    8.1683    5.8377   15.9442 H   0  0  0  0  0  0  0  0  0  0  0  0
    8.4084    7.1378   17.1285 H   0  0  0  0  0  0  0  0  0  0  0  0
    9.7536    6.0462   16.7435 H   0  0  0  0  0  0  0  0  0  0  0  0
    9.7261    3.5262   17.1899 H   0  0  0  0  0  0  0  0  0  0  0  0
    8.0670    3.2536   16.6044 H   0  0  0  0  0  0  0  0  0  0  0  0
    9.1049    2.5223   19.4010 H   0  0  0  0  0  0  0  0  0  0  0  0
    7.4893    2.3497   18.8771 H   0  0  0  0  0  0  0  0  0  0  0  0
    9.8715    0.7939   18.0607 H   0  0  0  0  0  0  0  0  0  0  0  0
    8.6355   -1.1865   19.0247 H   0  0  0  0  0  0  0  0  0  0  0  0
    5.4856   -2.6320   20.1765 H   0  0  0  0  0  0  0  0  0  0  0  0
    5.4122   -1.0696   21.1031 H   0  0  0  0  0  0  0  0  0  0  0  0
    4.9700   -1.0038   22.8711 H   0  0  0  0  0  0  0  0  0  0  0  0
    5.9170   -2.8252   22.8245 H   0  0  0  0  0  0  0  0  0  0  0  0
    5.8527   -4.3066   24.5137 H   0  0  0  0  0  0  0  0  0  0  0  0
    4.9068   -4.3215   26.9885 H   0  0  0  0  0  0  0  0  0  0  0  0
    3.5429   -2.2771   28.5435 H   0  0  0  0  0  0  0  0  0  0  0  0
    2.8263    0.0967   28.5226 H   0  0  0  0  0  0  0  0  0  0  0  0
    3.3206    1.5075   26.5568 H   0  0  0  0  0  0  0  0  0  0  0  0
    4.4553    0.5933   24.5781 H   0  0  0  0  0  0  0  0  0  0  0  0
   12.2140    1.7188   14.3617 H   0  0  0  0  0  0  0  0  0  0  0  0
   13.5404   -0.2682   13.6351 H   0  0  0  0  0  0  0  0  0  0  0  0
   12.6838   -2.5554   14.0142 H   0  0  0  0  0  0  0  0  0  0  0  0
   10.4516   -2.9185   15.0273 H   0  0  0  0  0  0  0  0  0  0  0  0
    8.1264   -1.2440   15.8858 H   0  0  0  0  0  0  0  0  0  0  0  0
  1  2  1  0
  2  3  1  0
  3  4  1  0
  4  5  1  0
  5  6  1  0
  6  7  1  0
  7  8  2  0
  7  9  1  0
  9 10  1  0
 10 11  1  0
 11 12  1  0
 12 13  2  0
 13 14  1  0
 14 15  2  0
 15 16  1  0
 16 17  2  0
 17 18  1  0
 18 19  2  0
  5 20  1  0
 20 21  2  0
 21 22  1  0
 22 23  2  0
 23 24  1  0
 24 25  2  0
 25 26  1  0
 26 27  2  0
 27 28  1  0
 19 11  1  0
 28 20  1  0
 19 14  1  0
 27 22  1  0
  1 29  1  0
  1 30  1  0
  1 31  1  0
  3 32  1  0
  3 33  1  0
  4 34  1  0
  4 35  1  0
  5 36  1  0
  6 37  1  0
  9 38  1  0
  9 39  1  0
 10 40  1  0
 10 41  1  0
 12 42  1  0
 13 43  1  0
 15 44  1  0
 16 45  1  0
 17 46  1  0
 18 47  1  0
 23 48  1  0
 24 49  1  0
 25 50  1  0
 26 51  1  0
 28 52  1  0
M  END
>  <Energy>  (657) 
392.8703812858642

>  <compound_id>  (657) 
39964

>  <target_id>  (657) 
1

>  <reference_id>  (657) 
40

>  <inspiration_ids>  (657) 
[40, 103]

>  <energy_score>  (657) 
372.77274871747625

>  <distance_score>  (657) 
5.405227049009444

>  <path>  (657) 
/opt/xchem-fragalysis-2/maxwin/BulkDock/SCRATCH/511017/C39964-P40/C39964-P40.minimised.mol

>  <scratch_subdir>  (657) 
/opt/xchem-fragalysis-2/maxwin/BulkDock/SCRATCH/511017/C39964-P40

>  <fragmenstein_runtime>  (657) 
10.900689601898193

>  <fragmenstein_outcome>  (657) 
too moved

>  <fragmenstein_mode>  (657) 
expansion

>  <fragmenstein_error>  (657) 


$$$$
C39964-P103
     RDKit          3D

 52 55  0  0  0  0  0  0  0  0999 V2000
    8.0208    6.6562   17.7688 C   0  0  0  0  0  0  0  0  0  0  0  0
    7.8295    5.7406   16.2196 S   0  0  0  0  0  0  0  0  0  0  0  0
    8.6725    4.1823   16.6739 C   0  0  0  0  0  0  0  0  0  0  0  0
    7.7669    3.2786   17.5033 C   0  0  0  0  0  0  0  0  0  0  0  0
    8.3427    1.8397   17.9887 C   0  0  0  0  0  0  0  0  0  0  0  0
    7.2616    1.1206   19.3142 N   0  0  0  0  0  0  0  0  0  0  0  0
    7.1752    1.4443   21.1305 C   0  0  0  0  0  0  0  0  0  0  0  0
    7.9209    2.1405   21.7642 O   0  0  0  0  0  0  0  0  0  0  0  0
    5.3900    0.4747   21.7860 C   0  0  0  0  0  0  0  0  0  0  0  0
    4.9569   -0.6870   23.3999 C   0  0  0  0  0  0  0  0  0  0  0  0
    4.1284   -0.9562   24.7612 N   0  0  0  0  0  0  0  0  0  0  0  0
    3.9449   -2.2393   25.2259 C   0  0  0  0  0  0  0  0  0  0  0  0
    3.5644   -2.2321   26.5400 C   0  0  0  0  0  0  0  0  0  0  0  0
    3.3298   -0.9096   26.9064 C   0  0  0  0  0  0  0  0  0  0  0  0
    2.8206   -0.3608   28.1009 C   0  0  0  0  0  0  0  0  0  0  0  0
    2.5183    0.9913   28.1551 C   0  0  0  0  0  0  0  0  0  0  0  0
    2.6934    1.7741   27.0235 C   0  0  0  0  0  0  0  0  0  0  0  0
    3.2141    1.2396   25.8310 C   0  0  0  0  0  0  0  0  0  0  0  0
    3.6020   -0.1132   25.7769 C   0  0  0  0  0  0  0  0  0  0  0  0
    9.3743    1.0896   17.0328 C   0  0  0  0  0  0  0  0  0  0  0  0
    9.3215   -0.1674   16.6047 N   0  0  0  0  0  0  0  0  0  0  0  0
   10.4286   -0.3493   15.7909 C   0  0  0  0  0  0  0  0  0  0  0  0
   10.8864   -1.5007   15.1366 C   0  0  0  0  0  0  0  0  0  0  0  0
   12.1161   -1.4589   14.4698 C   0  0  0  0  0  0  0  0  0  0  0  0
   12.8763   -0.2906   14.4542 C   0  0  0  0  0  0  0  0  0  0  0  0
   12.4271    0.8760   15.0851 C   0  0  0  0  0  0  0  0  0  0  0  0
   11.1927    0.8059   15.7353 C   0  0  0  0  0  0  0  0  0  0  0  0
   10.4759    1.7235   16.4649 N   0  0  0  0  0  0  0  0  0  0  0  0
    7.4729    6.1680   18.5780 H   0  0  0  0  0  0  0  0  0  0  0  0
    9.0775    6.7391   18.0359 H   0  0  0  0  0  0  0  0  0  0  0  0
    7.6168    7.6639   17.6400 H   0  0  0  0  0  0  0  0  0  0  0  0
    9.6011    4.4397   17.1830 H   0  0  0  0  0  0  0  0  0  0  0  0
    8.9183    3.6969   15.7257 H   0  0  0  0  0  0  0  0  0  0  0  0
    7.3481    3.8276   18.3475 H   0  0  0  0  0  0  0  0  0  0  0  0
    6.8714    3.1004   16.8861 H   0  0  0  0  0  0  0  0  0  0  0  0
    7.7883    1.4085   17.1660 H   0  0  0  0  0  0  0  0  0  0  0  0
    6.5619    0.4261   19.0522 H   0  0  0  0  0  0  0  0  0  0  0  0
    4.3616    0.7169   21.5961 H   0  0  0  0  0  0  0  0  0  0  0  0
    5.6353   -0.3827   21.2101 H   0  0  0  0  0  0  0  0  0  0  0  0
    5.3861   -1.6724   23.2613 H   0  0  0  0  0  0  0  0  0  0  0  0
    5.2910    0.0400   24.0410 H   0  0  0  0  0  0  0  0  0  0  0  0
    4.1280   -3.0683   24.5873 H   0  0  0  0  0  0  0  0  0  0  0  0
    3.3848   -3.0789   27.1730 H   0  0  0  0  0  0  0  0  0  0  0  0
    2.6270   -1.0014   28.9553 H   0  0  0  0  0  0  0  0  0  0  0  0
    2.1074    1.4218   29.0630 H   0  0  0  0  0  0  0  0  0  0  0  0
    2.3928    2.8191   27.0459 H   0  0  0  0  0  0  0  0  0  0  0  0
    3.1882    1.8474   24.9336 H   0  0  0  0  0  0  0  0  0  0  0  0
   10.2944   -2.4079   15.1253 H   0  0  0  0  0  0  0  0  0  0  0  0
   12.4676   -2.3451   13.9470 H   0  0  0  0  0  0  0  0  0  0  0  0
   13.8290   -0.2818   13.9285 H   0  0  0  0  0  0  0  0  0  0  0  0
   13.0173    1.7857   15.0675 H   0  0  0  0  0  0  0  0  0  0  0  0
   10.8095    2.6440   16.7160 H   0  0  0  0  0  0  0  0  0  0  0  0
  1  2  1  0
  2  3  1  0
  3  4  1  0
  4  5  1  0
  5  6  1  0
  6  7  1  0
  7  8  2  0
  7  9  1  0
  9 10  1  0
 10 11  1  0
 11 12  1  0
 12 13  2  0
 13 14  1  0
 14 15  2  0
 15 16  1  0
 16 17  2  0
 17 18  1  0
 18 19  2  0
  5 20  1  0
 20 21  2  0
 21 22  1  0
 22 23  2  0
 23 24  1  0
 24 25  2  0
 25 26  1  0
 26 27  2  0
 27 28  1  0
 19 11  1  0
 28 20  1  0
 19 14  1  0
 27 22  1  0
  1 29  1  0
  1 30  1  0
  1 31  1  0
  3 32  1  0
  3 33  1  0
  4 34  1  0
  4 35  1  0
  5 36  1  0
  6 37  1  0
  9 38  1  0
  9 39  1  0
 10 40  1  0
 10 41  1  0
 12 42  1  0
 13 43  1  0
 15 44  1  0
 16 45  1  0
 17 46  1  0
 18 47  1  0
 23 48  1  0
 24 49  1  0
 25 50  1  0
 26 51  1  0
 28 52  1  0
M  END
>  <Energy>  (658) 
404.37062900919483

>  <compound_id>  (658) 
39964

>  <target_id>  (658) 
1

>  <reference_id>  (658) 
103

>  <inspiration_ids>  (658) 
[40, 103]

>  <energy_score>  (658) 
384.272996440799

>  <distance_score>  (658) 
5.410953084177894

>  <path>  (658) 
/opt/xchem-fragalysis-2/maxwin/BulkDock/SCRATCH/511017/C39964-P103/C39964-P103.minimised.mol

>  <scratch_subdir>  (658) 
/opt/xchem-fragalysis-2/maxwin/BulkDock/SCRATCH/511017/C39964-P103

>  <fragmenstein_runtime>  (658) 
10.607447624206543

>  <fragmenstein_outcome>  (658) 
too moved

>  <fragmenstein_mode>  (658) 
expansion

>  <fragmenstein_error>  (658) 


$$$$
C39965-P40
     RDKit          3D

 56 59  0  0  0  0  0  0  0  0999 V2000
    1.3700   -1.6525   29.5685 C   0  0  0  0  0  0  0  0  0  0  0  0
    1.9741   -0.5427   28.8988 O   0  0  0  0  0  0  0  0  0  0  0  0
    2.8168   -0.8367   27.8574 C   0  0  0  0  0  0  0  0  0  0  0  0
    3.0486    0.1532   26.8992 C   0  0  0  0  0  0  0  0  0  0  0  0
    3.8192   -0.0676   25.7178 C   0  0  0  0  0  0  0  0  0  0  0  0
    4.3654   -1.3415   25.4927 C   0  0  0  0  0  0  0  0  0  0  0  0
    4.2373   -2.2921   26.5483 C   0  0  0  0  0  0  0  0  0  0  0  0
    4.9413   -3.4371   26.1944 C   0  0  0  0  0  0  0  0  0  0  0  0
    5.3782   -3.2316   24.9248 C   0  0  0  0  0  0  0  0  0  0  0  0
    4.9852   -1.9877   24.3789 N   0  0  0  0  0  0  0  0  0  0  0  0
    4.9415   -1.6174   22.6436 C   0  0  0  0  0  0  0  0  0  0  0  0
    5.8808   -1.8060   20.7850 C   0  0  0  0  0  0  0  0  0  0  0  0
    7.0780   -0.5140   19.6668 C   0  0  0  0  0  0  0  0  0  0  0  0
    8.1704   -0.5091   20.0713 O   0  0  0  0  0  0  0  0  0  0  0  0
    6.5660    0.3064   18.4719 N   0  0  0  0  0  0  0  0  0  0  0  0
    7.2484    1.3671   17.6015 C   0  0  0  0  0  0  0  0  0  0  0  0
    7.9345    2.4829   18.4491 C   0  0  0  0  0  0  0  0  0  0  0  0
    7.7020    3.9114   17.9264 C   0  0  0  0  0  0  0  0  0  0  0  0
    9.0051    4.5110   16.8114 S   0  0  0  0  0  0  0  0  0  0  0  0
    8.2990    6.1225   16.3999 C   0  0  0  0  0  0  0  0  0  0  0  0
    8.2088    0.9678   16.5019 C   0  0  0  0  0  0  0  0  0  0  0  0
    8.3995    1.5888   15.3502 N   0  0  0  0  0  0  0  0  0  0  0  0
    9.5833    1.1040   14.8056 C   0  0  0  0  0  0  0  0  0  0  0  0
   10.3242    1.4760   13.6753 C   0  0  0  0  0  0  0  0  0  0  0  0
   11.5143    0.7877   13.3845 C   0  0  0  0  0  0  0  0  0  0  0  0
   11.9443   -0.2787   14.1754 C   0  0  0  0  0  0  0  0  0  0  0  0
   11.2368   -0.6443   15.3197 C   0  0  0  0  0  0  0  0  0  0  0  0
   10.0965    0.1130   15.6128 C   0  0  0  0  0  0  0  0  0  0  0  0
    9.3643    0.3015   16.7534 N   0  0  0  0  0  0  0  0  0  0  0  0
    3.4733   -2.0414   27.7100 C   0  0  0  0  0  0  0  0  0  0  0  0
    0.9222   -2.3541   28.8562 H   0  0  0  0  0  0  0  0  0  0  0  0
    0.5699   -1.2613   30.2039 H   0  0  0  0  0  0  0  0  0  0  0  0
    2.0970   -2.1540   30.2146 H   0  0  0  0  0  0  0  0  0  0  0  0
    2.5794    1.1269   27.0307 H   0  0  0  0  0  0  0  0  0  0  0  0
    3.9175    0.7212   24.9790 H   0  0  0  0  0  0  0  0  0  0  0  0
    5.0865   -4.3395   26.7708 H   0  0  0  0  0  0  0  0  0  0  0  0
    5.9014   -3.9675   24.3358 H   0  0  0  0  0  0  0  0  0  0  0  0
    5.0769   -0.5735   22.8963 H   0  0  0  0  0  0  0  0  0  0  0  0
    5.5623   -2.4995   22.8105 H   0  0  0  0  0  0  0  0  0  0  0  0
    5.3285   -2.5414   20.1701 H   0  0  0  0  0  0  0  0  0  0  0  0
    6.5484   -2.6694   21.0751 H   0  0  0  0  0  0  0  0  0  0  0  0
    5.6125    0.0458   18.2922 H   0  0  0  0  0  0  0  0  0  0  0  0
    6.4001    1.8193   17.0779 H   0  0  0  0  0  0  0  0  0  0  0  0
    9.0042    2.3036   18.5806 H   0  0  0  0  0  0  0  0  0  0  0  0
    7.5414    2.4536   19.4622 H   0  0  0  0  0  0  0  0  0  0  0  0
    7.6868    4.5926   18.7846 H   0  0  0  0  0  0  0  0  0  0  0  0
    6.7361    3.9947   17.4195 H   0  0  0  0  0  0  0  0  0  0  0  0
    8.9746    6.6491   15.7208 H   0  0  0  0  0  0  0  0  0  0  0  0
    8.1741    6.7258   17.3028 H   0  0  0  0  0  0  0  0  0  0  0  0
    7.3335    5.9992   15.9023 H   0  0  0  0  0  0  0  0  0  0  0  0
    9.9968    2.2958   13.0514 H   0  0  0  0  0  0  0  0  0  0  0  0
   12.0964    1.0814   12.5157 H   0  0  0  0  0  0  0  0  0  0  0  0
   12.8520   -0.8148   13.9098 H   0  0  0  0  0  0  0  0  0  0  0  0
   11.5977   -1.4344   15.9688 H   0  0  0  0  0  0  0  0  0  0  0  0
    9.8200    0.5526   17.6026 H   0  0  0  0  0  0  0  0  0  0  0  0
    3.4053   -2.8221   28.4569 H   0  0  0  0  0  0  0  0  0  0  0  0
  1  2  1  0
  2  3  1  0
  3  4  2  0
  4  5  1  0
  5  6  2  0
  6  7  1  0
  7  8  1  0
  8  9  2  0
  9 10  1  0
 10 11  1  0
 11 12  1  0
 12 13  1  0
 13 14  2  0
 13 15  1  0
 15 16  1  0
 16 17  1  0
 17 18  1  0
 18 19  1  0
 19 20  1  0
 16 21  1  0
 21 22  2  0
 22 23  1  0
 23 24  2  0
 24 25  1  0
 25 26  2  0
 26 27  1  0
 27 28  2  0
 28 29  1  0
  7 30  2  0
 30  3  1  0
 10  6  1  0
 29 21  1  0
 28 23  1  0
  1 31  1  0
  1 32  1  0
  1 33  1  0
  4 34  1  0
  5 35  1  0
  8 36  1  0
  9 37  1  0
 11 38  1  0
 11 39  1  0
 12 40  1  0
 12 41  1  0
 15 42  1  0
 16 43  1  0
 17 44  1  0
 17 45  1  0
 18 46  1  0
 18 47  1  0
 20 48  1  0
 20 49  1  0
 20 50  1  0
 24 51  1  0
 25 52  1  0
 26 53  1  0
 27 54  1  0
 29 55  1  0
 30 56  1  0
M  END
>  <Energy>  (659) 
336.12256447135286

>  <compound_id>  (659) 
39965

>  <target_id>  (659) 
1

>  <reference_id>  (659) 
40

>  <inspiration_ids>  (659) 
[40, 103]

>  <energy_score>  (659) 
308.16678273166343

>  <distance_score>  (659) 
5.470065034861601

>  <path>  (659) 
/opt/xchem-fragalysis-2/maxwin/BulkDock/SCRATCH/511017/C39965-P40/C39965-P40.minimised.mol

>  <scratch_subdir>  (659) 
/opt/xchem-fragalysis-2/maxwin/BulkDock/SCRATCH/511017/C39965-P40

>  <fragmenstein_runtime>  (659) 
16.023866176605225

>  <fragmenstein_outcome>  (659) 
too moved

>  <fragmenstein_mode>  (659) 
expansion

>  <fragmenstein_error>  (659) 


$$$$
C39965-P103
     RDKit          3D

 56 59  0  0  0  0  0  0  0  0999 V2000
    0.8524   -4.8986   31.3170 C   0  0  0  0  0  0  0  0  0  0  0  0
    2.2302   -4.8760   31.6677 O   0  0  0  0  0  0  0  0  0  0  0  0
    3.0866   -4.1940   30.8467 C   0  0  0  0  0  0  0  0  0  0  0  0
    4.4287   -4.2705   31.2184 C   0  0  0  0  0  0  0  0  0  0  0  0
    5.4491   -3.6448   30.4814 C   0  0  0  0  0  0  0  0  0  0  0  0
    5.0954   -2.9132   29.3373 C   0  0  0  0  0  0  0  0  0  0  0  0
    3.7458   -2.8005   28.9597 C   0  0  0  0  0  0  0  0  0  0  0  0
    3.7119   -2.0042   27.7867 C   0  0  0  0  0  0  0  0  0  0  0  0
    5.0024   -1.6201   27.5001 C   0  0  0  0  0  0  0  0  0  0  0  0
    5.8584   -2.2109   28.4023 N   0  0  0  0  0  0  0  0  0  0  0  0
    7.3045   -1.9437   28.4429 C   0  0  0  0  0  0  0  0  0  0  0  0
    8.2036   -2.4137   27.2531 C   0  0  0  0  0  0  0  0  0  0  0  0
    9.6847   -1.9743   27.4396 C   0  0  0  0  0  0  0  0  0  0  0  0
    9.9457   -1.3661   28.4396 O   0  0  0  0  0  0  0  0  0  0  0  0
   10.5425   -2.4273   26.3546 N   0  0  0  0  0  0  0  0  0  0  0  0
   12.0099   -2.3657   26.1927 C   0  0  0  0  0  0  0  0  0  0  0  0
   12.6717   -3.3755   27.1561 C   0  0  0  0  0  0  0  0  0  0  0  0
   14.1513   -3.0630   27.3908 C   0  0  0  0  0  0  0  0  0  0  0  0
   14.9264   -4.3391   28.4427 S   0  0  0  0  0  0  0  0  0  0  0  0
   15.3152   -5.5637   27.1682 C   0  0  0  0  0  0  0  0  0  0  0  0
   12.5860   -2.5293   24.7873 C   0  0  0  0  0  0  0  0  0  0  0  0
   13.5213   -1.7563   24.2494 N   0  0  0  0  0  0  0  0  0  0  0  0
   13.9040   -2.3566   23.0639 C   0  0  0  0  0  0  0  0  0  0  0  0
   14.7822   -1.9130   22.0568 C   0  0  0  0  0  0  0  0  0  0  0  0
   14.9353   -2.6825   20.8932 C   0  0  0  0  0  0  0  0  0  0  0  0
   14.2511   -3.8883   20.7454 C   0  0  0  0  0  0  0  0  0  0  0  0
   13.3942   -4.3598   21.7488 C   0  0  0  0  0  0  0  0  0  0  0  0
   13.2304   -3.5598   22.8885 C   0  0  0  0  0  0  0  0  0  0  0  0
   12.4086   -3.6437   23.9920 N   0  0  0  0  0  0  0  0  0  0  0  0
    2.7371   -3.4540   29.7169 C   0  0  0  0  0  0  0  0  0  0  0  0
    0.3230   -5.4979   32.0636 H   0  0  0  0  0  0  0  0  0  0  0  0
    0.7042   -5.3700   30.3398 H   0  0  0  0  0  0  0  0  0  0  0  0
    0.4271   -3.8900   31.3343 H   0  0  0  0  0  0  0  0  0  0  0  0
    4.6944   -4.8289   32.1142 H   0  0  0  0  0  0  0  0  0  0  0  0
    6.4816   -3.7277   30.8040 H   0  0  0  0  0  0  0  0  0  0  0  0
    2.8378   -1.7304   27.2085 H   0  0  0  0  0  0  0  0  0  0  0  0
    5.3816   -1.0069   26.6953 H   0  0  0  0  0  0  0  0  0  0  0  0
    7.3884   -0.8542   28.5529 H   0  0  0  0  0  0  0  0  0  0  0  0
    7.6873   -2.3788   29.3724 H   0  0  0  0  0  0  0  0  0  0  0  0
    7.8353   -2.0008   26.3106 H   0  0  0  0  0  0  0  0  0  0  0  0
    8.1903   -3.5058   27.2038 H   0  0  0  0  0  0  0  0  0  0  0  0
    9.9913   -2.9889   25.7070 H   0  0  0  0  0  0  0  0  0  0  0  0
   12.2746   -1.3569   26.5365 H   0  0  0  0  0  0  0  0  0  0  0  0
   12.1539   -3.3490   28.1244 H   0  0  0  0  0  0  0  0  0  0  0  0
   12.5401   -4.3929   26.7660 H   0  0  0  0  0  0  0  0  0  0  0  0
   14.2458   -2.1035   27.9103 H   0  0  0  0  0  0  0  0  0  0  0  0
   14.7182   -2.9866   26.4589 H   0  0  0  0  0  0  0  0  0  0  0  0
   14.4035   -5.9217   26.6839 H   0  0  0  0  0  0  0  0  0  0  0  0
   15.8162   -6.4169   27.6333 H   0  0  0  0  0  0  0  0  0  0  0  0
   15.9864   -5.1352   26.4194 H   0  0  0  0  0  0  0  0  0  0  0  0
   15.2951   -0.9654   22.1744 H   0  0  0  0  0  0  0  0  0  0  0  0
   15.5926   -2.3288   20.1032 H   0  0  0  0  0  0  0  0  0  0  0  0
   14.3775   -4.4663   19.8335 H   0  0  0  0  0  0  0  0  0  0  0  0
   12.8525   -5.2851   21.6140 H   0  0  0  0  0  0  0  0  0  0  0  0
   11.7601   -4.3899   24.1865 H   0  0  0  0  0  0  0  0  0  0  0  0
    1.7088   -3.3537   29.3906 H   0  0  0  0  0  0  0  0  0  0  0  0
  1  2  1  0
  2  3  1  0
  3  4  2  0
  4  5  1  0
  5  6  2  0
  6  7  1  0
  7  8  1  0
  8  9  2  0
  9 10  1  0
 10 11  1  0
 11 12  1  0
 12 13  1  0
 13 14  2  0
 13 15  1  0
 15 16  1  0
 16 17  1  0
 17 18  1  0
 18 19  1  0
 19 20  1  0
 16 21  1  0
 21 22  2  0
 22 23  1  0
 23 24  2  0
 24 25  1  0
 25 26  2  0
 26 27  1  0
 27 28  2  0
 28 29  1  0
  7 30  2  0
 30  3  1  0
 10  6  1  0
 29 21  1  0
 28 23  1  0
  1 31  1  0
  1 32  1  0
  1 33  1  0
  4 34  1  0
  5 35  1  0
  8 36  1  0
  9 37  1  0
 11 38  1  0
 11 39  1  0
 12 40  1  0
 12 41  1  0
 15 42  1  0
 16 43  1  0
 17 44  1  0
 17 45  1  0
 18 46  1  0
 18 47  1  0
 20 48  1  0
 20 49  1  0
 20 50  1  0
 24 51  1  0
 25 52  1  0
 26 53  1  0
 27 54  1  0
 29 55  1  0
 30 56  1  0
M  END
>  <Energy>  (660) 
19.071694325345625

>  <compound_id>  (660) 
39965

>  <target_id>  (660) 
1

>  <reference_id>  (660) 
103

>  <inspiration_ids>  (660) 
[40, 103]

>  <energy_score>  (660) 
-8.884087414341536

>  <distance_score>  (660) 
6.612837718390973

>  <path>  (660) 
/opt/xchem-fragalysis-2/maxwin/BulkDock/SCRATCH/511017/C39965-P103/C39965-P103.minimised.mol

>  <scratch_subdir>  (660) 
/opt/xchem-fragalysis-2/maxwin/BulkDock/SCRATCH/511017/C39965-P103

>  <fragmenstein_runtime>  (660) 
22.380431652069092

>  <fragmenstein_outcome>  (660) 
too moved

>  <fragmenstein_mode>  (660) 
expansion

>  <fragmenstein_error>  (660) 


$$$$
C39966-P40
     RDKit          3D

 49 52  0  0  0  0  0  0  0  0999 V2000
    9.9856    7.6827   22.4893 C   0  0  0  0  0  0  0  0  0  0  0  0
    8.2326    7.2442   22.3636 S   0  0  0  0  0  0  0  0  0  0  0  0
    7.8577    8.0760   20.7832 C   0  0  0  0  0  0  0  0  0  0  0  0
    6.3850    8.0099   20.3651 C   0  0  0  0  0  0  0  0  0  0  0  0
    5.6805    6.6372   20.3125 C   0  0  0  0  0  0  0  0  0  0  0  0
    5.3295    6.1685   21.6862 N   0  0  0  0  0  0  0  0  0  0  0  0
    4.0487    5.7126   22.2520 C   0  0  0  0  0  0  0  0  0  0  0  0
    2.9792    5.5521   21.7342 O   0  0  0  0  0  0  0  0  0  0  0  0
    4.0884    5.4306   23.7673 C   0  0  0  0  0  0  0  0  0  0  0  0
    4.4276    6.4790   24.6349 C   0  0  0  0  0  0  0  0  0  0  0  0
    4.5120    6.2993   26.0204 C   0  0  0  0  0  0  0  0  0  0  0  0
    4.2983    5.0581   26.6106 C   0  0  0  0  0  0  0  0  0  0  0  0
    3.9661    3.9960   25.7696 C   0  0  0  0  0  0  0  0  0  0  0  0
    3.8017    4.1567   24.3755 C   0  0  0  0  0  0  0  0  0  0  0  0
    3.3922    2.8744   23.9163 C   0  0  0  0  0  0  0  0  0  0  0  0
    3.5056    1.9717   24.9516 C   0  0  0  0  0  0  0  0  0  0  0  0
    3.7664    2.6691   26.0840 N   0  0  0  0  0  0  0  0  0  0  0  0
    3.8758    2.0900   27.4033 C   0  0  0  0  0  0  0  0  0  0  0  0
    6.4853    5.6860   19.3903 C   0  0  0  0  0  0  0  0  0  0  0  0
    6.2509    5.4749   18.0964 N   0  0  0  0  0  0  0  0  0  0  0  0
    7.1457    4.5112   17.6761 C   0  0  0  0  0  0  0  0  0  0  0  0
    7.2621    3.8355   16.4494 C   0  0  0  0  0  0  0  0  0  0  0  0
    8.2157    2.8156   16.3278 C   0  0  0  0  0  0  0  0  0  0  0  0
    9.0323    2.4798   17.3994 C   0  0  0  0  0  0  0  0  0  0  0  0
    8.9617    3.1771   18.6112 C   0  0  0  0  0  0  0  0  0  0  0  0
    8.0067    4.1829   18.7062 C   0  0  0  0  0  0  0  0  0  0  0  0
    7.6644    5.0413   19.7197 N   0  0  0  0  0  0  0  0  0  0  0  0
   10.5385    7.2828   21.6354 H   0  0  0  0  0  0  0  0  0  0  0  0
   10.3989    7.2512   23.4048 H   0  0  0  0  0  0  0  0  0  0  0  0
   10.1043    8.7684   22.5313 H   0  0  0  0  0  0  0  0  0  0  0  0
    8.4933    7.6478   20.0018 H   0  0  0  0  0  0  0  0  0  0  0  0
    8.1399    9.1304   20.8804 H   0  0  0  0  0  0  0  0  0  0  0  0
    6.3184    8.4656   19.3673 H   0  0  0  0  0  0  0  0  0  0  0  0
    5.8080    8.6694   21.0282 H   0  0  0  0  0  0  0  0  0  0  0  0
    4.7100    6.7795   19.8188 H   0  0  0  0  0  0  0  0  0  0  0  0
    6.0071    6.2661   22.4339 H   0  0  0  0  0  0  0  0  0  0  0  0
    4.6131    7.4698   24.2235 H   0  0  0  0  0  0  0  0  0  0  0  0
    4.7671    7.1499   26.6500 H   0  0  0  0  0  0  0  0  0  0  0  0
    4.3990    4.9317   27.6835 H   0  0  0  0  0  0  0  0  0  0  0  0
    3.1215    2.6259   22.9019 H   0  0  0  0  0  0  0  0  0  0  0  0
    3.4082    0.8960   24.9679 H   0  0  0  0  0  0  0  0  0  0  0  0
    3.6533    1.0208   27.3550 H   0  0  0  0  0  0  0  0  0  0  0  0
    3.1559    2.5854   28.0597 H   0  0  0  0  0  0  0  0  0  0  0  0
    4.8968    2.2396   27.7638 H   0  0  0  0  0  0  0  0  0  0  0  0
    6.6028    4.0947   15.6292 H   0  0  0  0  0  0  0  0  0  0  0  0
    8.3331    2.2781   15.3938 H   0  0  0  0  0  0  0  0  0  0  0  0
    9.7622    1.6902   17.2671 H   0  0  0  0  0  0  0  0  0  0  0  0
    9.6227    2.9657   19.4406 H   0  0  0  0  0  0  0  0  0  0  0  0
    8.1535    5.1169   20.5984 H   0  0  0  0  0  0  0  0  0  0  0  0
  1  2  1  0
  2  3  1  0
  3  4  1  0
  4  5  1  0
  5  6  1  0
  6  7  1  0
  7  8  2  0
  7  9  1  0
  9 10  2  0
 10 11  1  0
 11 12  2  0
 12 13  1  0
 13 14  2  0
 14 15  1  0
 15 16  2  0
 16 17  1  0
 17 18  1  0
  5 19  1  0
 19 20  2  0
 20 21  1  0
 21 22  2  0
 22 23  1  0
 23 24  2  0
 24 25  1  0
 25 26  2  0
 26 27  1  0
 14  9  1  0
 27 19  1  0
 17 13  1  0
 26 21  1  0
  1 28  1  0
  1 29  1  0
  1 30  1  0
  3 31  1  0
  3 32  1  0
  4 33  1  0
  4 34  1  0
  5 35  1  0
  6 36  1  0
 10 37  1  0
 11 38  1  0
 12 39  1  0
 15 40  1  0
 16 41  1  0
 18 42  1  0
 18 43  1  0
 18 44  1  0
 22 45  1  0
 23 46  1  0
 24 47  1  0
 25 48  1  0
 27 49  1  0
M  END
>  <Energy>  (661) 
54.736235534715469

>  <compound_id>  (661) 
39966

>  <target_id>  (661) 
1

>  <reference_id>  (661) 
40

>  <inspiration_ids>  (661) 
[40, 103]

>  <energy_score>  (661) 
-28.512072126215116

>  <distance_score>  (661) 
10.094639870651164

>  <path>  (661) 
/opt/xchem-fragalysis-2/maxwin/BulkDock/SCRATCH/511017/C39966-P40/C39966-P40.minimised.mol

>  <scratch_subdir>  (661) 
/opt/xchem-fragalysis-2/maxwin/BulkDock/SCRATCH/511017/C39966-P40

>  <fragmenstein_runtime>  (661) 
11.632535219192505

>  <fragmenstein_outcome>  (661) 
too moved

>  <fragmenstein_mode>  (661) 
expansion

>  <fragmenstein_error>  (661) 


$$$$
C39966-P103
     RDKit          3D

 49 52  0  0  0  0  0  0  0  0999 V2000
   10.0272    4.4237   23.2276 C   0  0  0  0  0  0  0  0  0  0  0  0
   10.6841    3.0024   24.1324 S   0  0  0  0  0  0  0  0  0  0  0  0
   12.3846    3.0293   23.4711 C   0  0  0  0  0  0  0  0  0  0  0  0
   13.3820    2.2343   24.3204 C   0  0  0  0  0  0  0  0  0  0  0  0
   13.3041    0.6861   24.2746 C   0  0  0  0  0  0  0  0  0  0  0  0
   12.0567    0.2020   24.9108 N   0  0  0  0  0  0  0  0  0  0  0  0
   11.8383   -0.8102   25.9366 C   0  0  0  0  0  0  0  0  0  0  0  0
   12.6064   -1.5638   26.4661 O   0  0  0  0  0  0  0  0  0  0  0  0
   10.4092   -0.8595   26.5211 C   0  0  0  0  0  0  0  0  0  0  0  0
    9.7463    0.3487   26.8405 C   0  0  0  0  0  0  0  0  0  0  0  0
    8.5074    0.3893   27.4953 C   0  0  0  0  0  0  0  0  0  0  0  0
    7.8742   -0.7765   27.9024 C   0  0  0  0  0  0  0  0  0  0  0  0
    8.5518   -1.9821   27.6886 C   0  0  0  0  0  0  0  0  0  0  0  0
    9.7939   -2.0554   27.0216 C   0  0  0  0  0  0  0  0  0  0  0  0
   10.1605   -3.4370   27.0635 C   0  0  0  0  0  0  0  0  0  0  0  0
    9.1814   -4.1437   27.7266 C   0  0  0  0  0  0  0  0  0  0  0  0
    8.2100   -3.2574   28.0924 N   0  0  0  0  0  0  0  0  0  0  0  0
    7.0458   -3.5904   28.8813 C   0  0  0  0  0  0  0  0  0  0  0  0
   13.7024    0.1916   22.8902 C   0  0  0  0  0  0  0  0  0  0  0  0
   13.8347    0.9120   21.7792 N   0  0  0  0  0  0  0  0  0  0  0  0
   14.3433    0.0666   20.8161 C   0  0  0  0  0  0  0  0  0  0  0  0
   14.5972    0.2944   19.4508 C   0  0  0  0  0  0  0  0  0  0  0  0
   15.0306   -0.7743   18.6534 C   0  0  0  0  0  0  0  0  0  0  0  0
   15.2312   -2.0393   19.2098 C   0  0  0  0  0  0  0  0  0  0  0  0
   15.0157   -2.2754   20.5750 C   0  0  0  0  0  0  0  0  0  0  0  0
   14.5728   -1.1945   21.3458 C   0  0  0  0  0  0  0  0  0  0  0  0
   14.2078   -1.0770   22.6715 N   0  0  0  0  0  0  0  0  0  0  0  0
   10.5182    5.3425   23.5585 H   0  0  0  0  0  0  0  0  0  0  0  0
    8.9555    4.5134   23.4233 H   0  0  0  0  0  0  0  0  0  0  0  0
   10.1771    4.2958   22.1535 H   0  0  0  0  0  0  0  0  0  0  0  0
   12.7162    4.0737   23.4642 H   0  0  0  0  0  0  0  0  0  0  0  0
   12.3511    2.6935   22.4333 H   0  0  0  0  0  0  0  0  0  0  0  0
   14.3907    2.5316   24.0000 H   0  0  0  0  0  0  0  0  0  0  0  0
   13.2991    2.5610   25.3663 H   0  0  0  0  0  0  0  0  0  0  0  0
   14.0977    0.3255   24.9449 H   0  0  0  0  0  0  0  0  0  0  0  0
   11.1927    0.7111   24.7577 H   0  0  0  0  0  0  0  0  0  0  0  0
   10.2193    1.2994   26.6071 H   0  0  0  0  0  0  0  0  0  0  0  0
    8.0392    1.3505   27.6954 H   0  0  0  0  0  0  0  0  0  0  0  0
    6.9154   -0.7397   28.4083 H   0  0  0  0  0  0  0  0  0  0  0  0
   11.0672   -3.8579   26.6485 H   0  0  0  0  0  0  0  0  0  0  0  0
    9.1106   -5.1957   27.9615 H   0  0  0  0  0  0  0  0  0  0  0  0
    6.1704   -3.0827   28.4709 H   0  0  0  0  0  0  0  0  0  0  0  0
    7.2276   -3.2639   29.9086 H   0  0  0  0  0  0  0  0  0  0  0  0
    6.8879   -4.6718   28.8583 H   0  0  0  0  0  0  0  0  0  0  0  0
   14.4267    1.2779   19.0269 H   0  0  0  0  0  0  0  0  0  0  0  0
   15.2129   -0.6133   17.5938 H   0  0  0  0  0  0  0  0  0  0  0  0
   15.5664   -2.8565   18.5747 H   0  0  0  0  0  0  0  0  0  0  0  0
   15.1624   -3.2589   21.0074 H   0  0  0  0  0  0  0  0  0  0  0  0
   14.1717   -1.8277   23.3455 H   0  0  0  0  0  0  0  0  0  0  0  0
  1  2  1  0
  2  3  1  0
  3  4  1  0
  4  5  1  0
  5  6  1  0
  6  7  1  0
  7  8  2  0
  7  9  1  0
  9 10  2  0
 10 11  1  0
 11 12  2  0
 12 13  1  0
 13 14  2  0
 14 15  1  0
 15 16  2  0
 16 17  1  0
 17 18  1  0
  5 19  1  0
 19 20  2  0
 20 21  1  0
 21 22  2  0
 22 23  1  0
 23 24  2  0
 24 25  1  0
 25 26  2  0
 26 27  1  0
 14  9  1  0
 27 19  1  0
 17 13  1  0
 26 21  1  0
  1 28  1  0
  1 29  1  0
  1 30  1  0
  3 31  1  0
  3 32  1  0
  4 33  1  0
  4 34  1  0
  5 35  1  0
  6 36  1  0
 10 37  1  0
 11 38  1  0
 12 39  1  0
 15 40  1  0
 16 41  1  0
 18 42  1  0
 18 43  1  0
 18 44  1  0
 22 45  1  0
 23 46  1  0
 24 47  1  0
 25 48  1  0
 27 49  1  0
M  END
>  <Energy>  (662) 
47.300253143100448

>  <compound_id>  (662) 
39966

>  <target_id>  (662) 
1

>  <reference_id>  (662) 
103

>  <inspiration_ids>  (662) 
[40, 103]

>  <energy_score>  (662) 
-35.94805451783077

>  <distance_score>  (662) 
8.145980618704002

>  <path>  (662) 
/opt/xchem-fragalysis-2/maxwin/BulkDock/SCRATCH/511017/C39966-P103/C39966-P103.minimised.mol

>  <scratch_subdir>  (662) 
/opt/xchem-fragalysis-2/maxwin/BulkDock/SCRATCH/511017/C39966-P103

>  <fragmenstein_runtime>  (662) 
11.570629835128784

>  <fragmenstein_outcome>  (662) 
too moved

>  <fragmenstein_mode>  (662) 
expansion

>  <fragmenstein_error>  (662) 


$$$$
C39967-P40
     RDKit          3D

 56 59  0  0  0  0  0  0  0  0999 V2000
    2.2208   -2.2583   32.4644 C   0  0  0  0  0  0  0  0  0  0  0  0
    1.6297   -2.2577   31.1701 O   0  0  0  0  0  0  0  0  0  0  0  0
    1.9966   -1.0862   30.4324 C   0  0  0  0  0  0  0  0  0  0  0  0
    1.2689   -1.0944   29.0950 C   0  0  0  0  0  0  0  0  0  0  0  0
    1.6891   -0.0048   28.2343 N   0  0  0  0  0  0  0  0  0  0  0  0
    1.0381    1.1905   28.1370 C   0  0  0  0  0  0  0  0  0  0  0  0
    1.6706    1.9370   27.1702 C   0  0  0  0  0  0  0  0  0  0  0  0
    2.7444    1.1711   26.6250 C   0  0  0  0  0  0  0  0  0  0  0  0
    3.6472    1.3576   25.5287 C   0  0  0  0  0  0  0  0  0  0  0  0
    3.6249    2.6283   24.6362 C   0  0  0  0  0  0  0  0  0  0  0  0
    3.3686    3.6370   25.2341 O   0  0  0  0  0  0  0  0  0  0  0  0
    3.9771    2.4175   23.2339 N   0  0  0  0  0  0  0  0  0  0  0  0
    4.0330    3.3662   22.0868 C   0  0  0  0  0  0  0  0  0  0  0  0
    4.1787    4.8481   22.4856 C   0  0  0  0  0  0  0  0  0  0  0  0
    5.3631    5.1964   23.3937 C   0  0  0  0  0  0  0  0  0  0  0  0
    6.7457    6.0017   22.5053 S   0  0  0  0  0  0  0  0  0  0  0  0
    6.0492    7.6660   22.3338 C   0  0  0  0  0  0  0  0  0  0  0  0
    4.9920    2.9117   20.9251 C   0  0  0  0  0  0  0  0  0  0  0  0
    4.7348    2.0060   19.9843 N   0  0  0  0  0  0  0  0  0  0  0  0
    5.8648    1.9054   19.1886 C   0  0  0  0  0  0  0  0  0  0  0  0
    6.1331    1.0831   18.0771 C   0  0  0  0  0  0  0  0  0  0  0  0
    7.3805    1.1754   17.4383 C   0  0  0  0  0  0  0  0  0  0  0  0
    8.3520    2.0564   17.9094 C   0  0  0  0  0  0  0  0  0  0  0  0
    8.1102    2.8729   19.0245 C   0  0  0  0  0  0  0  0  0  0  0  0
    6.8482    2.7776   19.6275 C   0  0  0  0  0  0  0  0  0  0  0  0
    6.2620    3.4303   20.6921 N   0  0  0  0  0  0  0  0  0  0  0  0
    4.5403    0.2969   25.3084 C   0  0  0  0  0  0  0  0  0  0  0  0
    4.5908   -0.8583   26.0960 C   0  0  0  0  0  0  0  0  0  0  0  0
    3.6965   -1.0456   27.1376 C   0  0  0  0  0  0  0  0  0  0  0  0
    2.7559   -0.0351   27.3586 C   0  0  0  0  0  0  0  0  0  0  0  0
    3.3122   -2.2436   32.3869 H   0  0  0  0  0  0  0  0  0  0  0  0
    1.9193   -3.1744   32.9792 H   0  0  0  0  0  0  0  0  0  0  0  0
    1.8711   -1.3996   33.0454 H   0  0  0  0  0  0  0  0  0  0  0  0
    1.7252   -0.1894   31.0026 H   0  0  0  0  0  0  0  0  0  0  0  0
    3.0828   -1.0854   30.2833 H   0  0  0  0  0  0  0  0  0  0  0  0
    0.1859   -1.0146   29.2485 H   0  0  0  0  0  0  0  0  0  0  0  0
    1.4278   -2.0393   28.5628 H   0  0  0  0  0  0  0  0  0  0  0  0
    0.1686    1.4152   28.7411 H   0  0  0  0  0  0  0  0  0  0  0  0
    1.3674    2.9246   26.8448 H   0  0  0  0  0  0  0  0  0  0  0  0
    4.0460    1.4130   23.0537 H   0  0  0  0  0  0  0  0  0  0  0  0
    3.0314    3.2742   21.6424 H   0  0  0  0  0  0  0  0  0  0  0  0
    3.2685    5.1161   23.0400 H   0  0  0  0  0  0  0  0  0  0  0  0
    4.1583    5.4748   21.5856 H   0  0  0  0  0  0  0  0  0  0  0  0
    5.7721    4.3150   23.8923 H   0  0  0  0  0  0  0  0  0  0  0  0
    5.0386    5.8808   24.1851 H   0  0  0  0  0  0  0  0  0  0  0  0
    5.8333    8.0917   23.3171 H   0  0  0  0  0  0  0  0  0  0  0  0
    5.1378    7.6458   21.7317 H   0  0  0  0  0  0  0  0  0  0  0  0
    6.7790    8.3072   21.8322 H   0  0  0  0  0  0  0  0  0  0  0  0
    5.3690    0.4005   17.7209 H   0  0  0  0  0  0  0  0  0  0  0  0
    7.5809    0.5681   16.5586 H   0  0  0  0  0  0  0  0  0  0  0  0
    9.3072    2.1393   17.3941 H   0  0  0  0  0  0  0  0  0  0  0  0
    8.8644    3.5676   19.3830 H   0  0  0  0  0  0  0  0  0  0  0  0
    6.7055    4.1505   21.2485 H   0  0  0  0  0  0  0  0  0  0  0  0
    5.2105    0.3543   24.4684 H   0  0  0  0  0  0  0  0  0  0  0  0
    5.3209   -1.6313   25.8619 H   0  0  0  0  0  0  0  0  0  0  0  0
    3.7096   -1.9601   27.7197 H   0  0  0  0  0  0  0  0  0  0  0  0
  1  2  1  0
  2  3  1  0
  3  4  1  0
  4  5  1  0
  5  6  1  0
  6  7  2  0
  7  8  1  0
  8  9  2  0
  9 10  1  0
 10 11  2  0
 10 12  1  0
 12 13  1  0
 13 14  1  0
 14 15  1  0
 15 16  1  0
 16 17  1  0
 13 18  1  0
 18 19  2  0
 19 20  1  0
 20 21  2  0
 21 22  1  0
 22 23  2  0
 23 24  1  0
 24 25  2  0
 25 26  1  0
  9 27  1  0
 27 28  2  0
 28 29  1  0
 29 30  2  0
 30  5  1  0
 30  8  1  0
 26 18  1  0
 25 20  1  0
  1 31  1  0
  1 32  1  0
  1 33  1  0
  3 34  1  0
  3 35  1  0
  4 36  1  0
  4 37  1  0
  6 38  1  0
  7 39  1  0
 12 40  1  0
 13 41  1  0
 14 42  1  0
 14 43  1  0
 15 44  1  0
 15 45  1  0
 17 46  1  0
 17 47  1  0
 17 48  1  0
 21 49  1  0
 22 50  1  0
 23 51  1  0
 24 52  1  0
 26 53  1  0
 27 54  1  0
 28 55  1  0
 29 56  1  0
M  END
>  <Energy>  (663) 
59.403342809575378

>  <compound_id>  (663) 
39967

>  <target_id>  (663) 
1

>  <reference_id>  (663) 
40

>  <inspiration_ids>  (663) 
[40, 103]

>  <energy_score>  (663) 
-20.99739409094485

>  <distance_score>  (663) 
8.497816764985334

>  <path>  (663) 
/opt/xchem-fragalysis-2/maxwin/BulkDock/SCRATCH/511017/C39967-P40/C39967-P40.minimised.mol

>  <scratch_subdir>  (663) 
/opt/xchem-fragalysis-2/maxwin/BulkDock/SCRATCH/511017/C39967-P40

>  <fragmenstein_runtime>  (663) 
9.924285888671875

>  <fragmenstein_outcome>  (663) 
too moved

>  <fragmenstein_mode>  (663) 
expansion

>  <fragmenstein_error>  (663) 


$$$$
C39967-P103
     RDKit          3D

 56 59  0  0  0  0  0  0  0  0999 V2000
    6.6798    0.3880   31.6070 C   0  0  0  0  0  0  0  0  0  0  0  0
    6.4005   -0.1644   30.3278 O   0  0  0  0  0  0  0  0  0  0  0  0
    6.0249   -1.5416   30.4148 C   0  0  0  0  0  0  0  0  0  0  0  0
    5.8084   -2.1108   29.0161 C   0  0  0  0  0  0  0  0  0  0  0  0
    7.0634   -2.4139   28.3420 N   0  0  0  0  0  0  0  0  0  0  0  0
    7.6709   -1.5688   27.4582 C   0  0  0  0  0  0  0  0  0  0  0  0
    8.7588   -2.2185   26.9287 C   0  0  0  0  0  0  0  0  0  0  0  0
    8.8669   -3.5036   27.5349 C   0  0  0  0  0  0  0  0  0  0  0  0
    9.7529   -4.6075   27.3894 C   0  0  0  0  0  0  0  0  0  0  0  0
   10.9971   -4.6671   26.4855 C   0  0  0  0  0  0  0  0  0  0  0  0
   11.2394   -5.7584   26.0492 O   0  0  0  0  0  0  0  0  0  0  0  0
   11.7259   -3.4348   26.3824 N   0  0  0  0  0  0  0  0  0  0  0  0
   13.0435   -3.1364   25.7979 C   0  0  0  0  0  0  0  0  0  0  0  0
   14.1442   -4.0122   26.4352 C   0  0  0  0  0  0  0  0  0  0  0  0
   14.2347   -3.9563   27.9610 C   0  0  0  0  0  0  0  0  0  0  0  0
   14.4736   -2.2996   28.6895 S   0  0  0  0  0  0  0  0  0  0  0  0
   16.0450   -1.8453   27.9119 C   0  0  0  0  0  0  0  0  0  0  0  0
   13.2218   -3.1574   24.2855 C   0  0  0  0  0  0  0  0  0  0  0  0
   14.0362   -2.3473   23.6171 N   0  0  0  0  0  0  0  0  0  0  0  0
   14.0923   -2.8222   22.3246 C   0  0  0  0  0  0  0  0  0  0  0  0
   14.7671   -2.3142   21.1978 C   0  0  0  0  0  0  0  0  0  0  0  0
   14.6493   -2.9791   19.9698 C   0  0  0  0  0  0  0  0  0  0  0  0
   13.8883   -4.1413   19.8698 C   0  0  0  0  0  0  0  0  0  0  0  0
   13.2219   -4.6691   20.9852 C   0  0  0  0  0  0  0  0  0  0  0  0
   13.3260   -3.9735   22.1964 C   0  0  0  0  0  0  0  0  0  0  0  0
   12.7632   -4.1484   23.4461 N   0  0  0  0  0  0  0  0  0  0  0  0
    9.4446   -5.7683   28.1467 C   0  0  0  0  0  0  0  0  0  0  0  0
    8.3537   -5.8401   29.0188 C   0  0  0  0  0  0  0  0  0  0  0  0
    7.5015   -4.7544   29.1764 C   0  0  0  0  0  0  0  0  0  0  0  0
    7.7696   -3.6019   28.4218 C   0  0  0  0  0  0  0  0  0  0  0  0
    7.5233   -0.1312   32.0719 H   0  0  0  0  0  0  0  0  0  0  0  0
    5.7976    0.3273   32.2515 H   0  0  0  0  0  0  0  0  0  0  0  0
    6.9464    1.4402   31.4769 H   0  0  0  0  0  0  0  0  0  0  0  0
    5.0842   -1.6038   30.9738 H   0  0  0  0  0  0  0  0  0  0  0  0
    6.7942   -2.1042   30.9566 H   0  0  0  0  0  0  0  0  0  0  0  0
    5.2331   -3.0407   29.0641 H   0  0  0  0  0  0  0  0  0  0  0  0
    5.2567   -1.4060   28.3833 H   0  0  0  0  0  0  0  0  0  0  0  0
    7.2613   -0.5884   27.2535 H   0  0  0  0  0  0  0  0  0  0  0  0
    9.3984   -1.8081   26.1592 H   0  0  0  0  0  0  0  0  0  0  0  0
   11.2649   -2.7312   26.9460 H   0  0  0  0  0  0  0  0  0  0  0  0
   13.2213   -2.0913   26.0811 H   0  0  0  0  0  0  0  0  0  0  0  0
   15.1210   -3.7500   26.0080 H   0  0  0  0  0  0  0  0  0  0  0  0
   13.9794   -5.0608   26.1515 H   0  0  0  0  0  0  0  0  0  0  0  0
   13.3246   -4.3736   28.4043 H   0  0  0  0  0  0  0  0  0  0  0  0
   15.0591   -4.5939   28.2994 H   0  0  0  0  0  0  0  0  0  0  0  0
   15.9091   -1.6687   26.8422 H   0  0  0  0  0  0  0  0  0  0  0  0
   16.7918   -2.6277   28.0691 H   0  0  0  0  0  0  0  0  0  0  0  0
   16.4117   -0.9207   28.3659 H   0  0  0  0  0  0  0  0  0  0  0  0
   15.3523   -1.4070   21.2922 H   0  0  0  0  0  0  0  0  0  0  0  0
   15.1566   -2.5819   19.0949 H   0  0  0  0  0  0  0  0  0  0  0  0
   13.7945   -4.6385   18.9083 H   0  0  0  0  0  0  0  0  0  0  0  0
   12.6210   -5.5626   20.8905 H   0  0  0  0  0  0  0  0  0  0  0  0
   12.1432   -4.8929   23.7332 H   0  0  0  0  0  0  0  0  0  0  0  0
   10.0991   -6.6356   28.0592 H   0  0  0  0  0  0  0  0  0  0  0  0
    8.1881   -6.7488   29.5910 H   0  0  0  0  0  0  0  0  0  0  0  0
    6.6586   -4.8029   29.8565 H   0  0  0  0  0  0  0  0  0  0  0  0
  1  2  1  0
  2  3  1  0
  3  4  1  0
  4  5  1  0
  5  6  1  0
  6  7  2  0
  7  8  1  0
  8  9  2  0
  9 10  1  0
 10 11  2  0
 10 12  1  0
 12 13  1  0
 13 14  1  0
 14 15  1  0
 15 16  1  0
 16 17  1  0
 13 18  1  0
 18 19  2  0
 19 20  1  0
 20 21  2  0
 21 22  1  0
 22 23  2  0
 23 24  1  0
 24 25  2  0
 25 26  1  0
  9 27  1  0
 27 28  2  0
 28 29  1  0
 29 30  2  0
 30  5  1  0
 30  8  1  0
 26 18  1  0
 25 20  1  0
  1 31  1  0
  1 32  1  0
  1 33  1  0
  3 34  1  0
  3 35  1  0
  4 36  1  0
  4 37  1  0
  6 38  1  0
  7 39  1  0
 12 40  1  0
 13 41  1  0
 14 42  1  0
 14 43  1  0
 15 44  1  0
 15 45  1  0
 17 46  1  0
 17 47  1  0
 17 48  1  0
 21 49  1  0
 22 50  1  0
 23 51  1  0
 24 52  1  0
 26 53  1  0
 27 54  1  0
 28 55  1  0
 29 56  1  0
M  END
>  <Energy>  (664) 
52.364230369718207

>  <compound_id>  (664) 
39967

>  <target_id>  (664) 
1

>  <reference_id>  (664) 
103

>  <inspiration_ids>  (664) 
[40, 103]

>  <energy_score>  (664) 
-28.036506530801148

>  <distance_score>  (664) 
8.213429914305515

>  <path>  (664) 
/opt/xchem-fragalysis-2/maxwin/BulkDock/SCRATCH/511017/C39967-P103/C39967-P103.minimised.mol

>  <scratch_subdir>  (664) 
/opt/xchem-fragalysis-2/maxwin/BulkDock/SCRATCH/511017/C39967-P103

>  <fragmenstein_runtime>  (664) 
21.75666379928589

>  <fragmenstein_outcome>  (664) 
too moved

>  <fragmenstein_mode>  (664) 
expansion

>  <fragmenstein_error>  (664) 


$$$$
C39968-P40
     RDKit          3D

 52 55  0  0  0  0  0  0  0  0999 V2000
    3.5426   -3.9754   27.4438 C   0  0  0  0  0  0  0  0  0  0  0  0
    3.1756   -5.3570   26.9227 C   0  0  0  0  0  0  0  0  0  0  0  0
    4.0270   -6.4723   27.5263 C   0  0  0  0  0  0  0  0  0  0  0  0
    5.4938   -6.4513   27.0769 C   0  0  0  0  0  0  0  0  0  0  0  0
    6.4050   -6.9964   28.1810 C   0  0  0  0  0  0  0  0  0  0  0  0
    7.9085   -6.8455   27.9253 C   0  0  0  0  0  0  0  0  0  0  0  0
    8.4440   -5.5614   27.4998 N   0  0  0  0  0  0  0  0  0  0  0  0
    9.5106   -5.4840   26.6347 C   0  0  0  0  0  0  0  0  0  0  0  0
    9.7885   -4.1626   26.3182 C   0  0  0  0  0  0  0  0  0  0  0  0
   10.8240   -3.9049   25.3105 C   0  0  0  0  0  0  0  0  0  0  0  0
   11.5075   -2.8518   24.7848 C   0  0  0  0  0  0  0  0  0  0  0  0
   11.4050   -1.5223   25.2919 C   0  0  0  0  0  0  0  0  0  0  0  0
   11.4041   -0.4397   25.7140 N   0  0  0  0  0  0  0  0  0  0  0  0
   12.3564   -3.1160   23.6268 C   0  0  0  0  0  0  0  0  0  0  0  0
   12.2920   -4.0896   22.7266 N   0  0  0  0  0  0  0  0  0  0  0  0
   13.1405   -3.7378   21.6993 C   0  0  0  0  0  0  0  0  0  0  0  0
   13.3517   -4.3438   20.4515 C   0  0  0  0  0  0  0  0  0  0  0  0
   14.2363   -3.7548   19.5406 C   0  0  0  0  0  0  0  0  0  0  0  0
   14.9200   -2.5868   19.8784 C   0  0  0  0  0  0  0  0  0  0  0  0
   14.7376   -1.9720   21.1269 C   0  0  0  0  0  0  0  0  0  0  0  0
   13.8342   -2.5785   22.0087 C   0  0  0  0  0  0  0  0  0  0  0  0
   13.3646   -2.2316   23.2585 N   0  0  0  0  0  0  0  0  0  0  0  0
    8.8160   -3.3950   27.0714 C   0  0  0  0  0  0  0  0  0  0  0  0
    8.4564   -2.0300   27.1615 C   0  0  0  0  0  0  0  0  0  0  0  0
    7.4399   -1.5948   28.0301 C   0  0  0  0  0  0  0  0  0  0  0  0
    6.7751   -2.4895   28.8495 C   0  0  0  0  0  0  0  0  0  0  0  0
    7.0831   -3.8447   28.7849 C   0  0  0  0  0  0  0  0  0  0  0  0
    8.0577   -4.2908   27.8637 C   0  0  0  0  0  0  0  0  0  0  0  0
    3.6076   -3.9680   28.5364 H   0  0  0  0  0  0  0  0  0  0  0  0
    2.7843   -3.2445   27.1517 H   0  0  0  0  0  0  0  0  0  0  0  0
    4.4970   -3.6354   27.0341 H   0  0  0  0  0  0  0  0  0  0  0  0
    2.1286   -5.5505   27.1801 H   0  0  0  0  0  0  0  0  0  0  0  0
    3.2490   -5.3755   25.8320 H   0  0  0  0  0  0  0  0  0  0  0  0
    3.9510   -6.4129   28.6188 H   0  0  0  0  0  0  0  0  0  0  0  0
    3.5886   -7.4324   27.2346 H   0  0  0  0  0  0  0  0  0  0  0  0
    5.6078   -7.0575   26.1700 H   0  0  0  0  0  0  0  0  0  0  0  0
    5.7894   -5.4381   26.8009 H   0  0  0  0  0  0  0  0  0  0  0  0
    6.1558   -6.5343   29.1408 H   0  0  0  0  0  0  0  0  0  0  0  0
    6.1907   -8.0639   28.3197 H   0  0  0  0  0  0  0  0  0  0  0  0
    8.4606   -7.1155   28.8338 H   0  0  0  0  0  0  0  0  0  0  0  0
    8.1870   -7.5745   27.1531 H   0  0  0  0  0  0  0  0  0  0  0  0
    9.9787   -6.3938   26.2811 H   0  0  0  0  0  0  0  0  0  0  0  0
   11.1124   -4.8455   24.8355 H   0  0  0  0  0  0  0  0  0  0  0  0
   12.8020   -5.2374   20.1883 H   0  0  0  0  0  0  0  0  0  0  0  0
   14.3854   -4.2235   18.5698 H   0  0  0  0  0  0  0  0  0  0  0  0
   15.6088   -2.1463   19.1608 H   0  0  0  0  0  0  0  0  0  0  0  0
   15.2618   -1.0585   21.3858 H   0  0  0  0  0  0  0  0  0  0  0  0
   13.5702   -1.3607   23.7255 H   0  0  0  0  0  0  0  0  0  0  0  0
    8.9529   -1.2926   26.5404 H   0  0  0  0  0  0  0  0  0  0  0  0
    7.1908   -0.5370   28.0626 H   0  0  0  0  0  0  0  0  0  0  0  0
    6.0085   -2.1352   29.5322 H   0  0  0  0  0  0  0  0  0  0  0  0
    6.5498   -4.5306   29.4286 H   0  0  0  0  0  0  0  0  0  0  0  0
  1  2  1  0
  2  3  1  0
  3  4  1  0
  4  5  1  0
  5  6  1  0
  6  7  1  0
  7  8  1  0
  8  9  2  0
  9 10  1  0
 10 11  2  3
 11 12  1  0
 12 13  3  0
 11 14  1  0
 14 15  2  0
 15 16  1  0
 16 17  2  0
 17 18  1  0
 18 19  2  0
 19 20  1  0
 20 21  2  0
 21 22  1  0
  9 23  1  0
 23 24  2  0
 24 25  1  0
 25 26  2  0
 26 27  1  0
 27 28  2  0
 28  7  1  0
 22 14  1  0
 28 23  1  0
 21 16  1  0
  1 29  1  0
  1 30  1  0
  1 31  1  0
  2 32  1  0
  2 33  1  0
  3 34  1  0
  3 35  1  0
  4 36  1  0
  4 37  1  0
  5 38  1  0
  5 39  1  0
  6 40  1  0
  6 41  1  0
  8 42  1  0
 10 43  1  0
 17 44  1  0
 18 45  1  0
 19 46  1  0
 20 47  1  0
 22 48  1  0
 24 49  1  0
 25 50  1  0
 26 51  1  0
 27 52  1  0
M  END
>  <Energy>  (665) 
55.104219082080796

>  <compound_id>  (665) 
39968

>  <target_id>  (665) 
1

>  <reference_id>  (665) 
40

>  <inspiration_ids>  (665) 
[40, 103]

>  <energy_score>  (665) 
-9.324798233570732

>  <distance_score>  (665) 
7.708125470437979

>  <path>  (665) 
/opt/xchem-fragalysis-2/maxwin/BulkDock/SCRATCH/511017/C39968-P40/C39968-P40.minimised.mol

>  <scratch_subdir>  (665) 
/opt/xchem-fragalysis-2/maxwin/BulkDock/SCRATCH/511017/C39968-P40

>  <fragmenstein_runtime>  (665) 
9.917353391647339

>  <fragmenstein_outcome>  (665) 
too moved

>  <fragmenstein_mode>  (665) 
expansion

>  <fragmenstein_error>  (665) 


$$$$
C39968-P103
     RDKit          3D

 52 55  0  0  0  0  0  0  0  0999 V2000
    7.6210    0.8535   32.7208 C   0  0  0  0  0  0  0  0  0  0  0  0
    9.0053    0.9480   32.0953 C   0  0  0  0  0  0  0  0  0  0  0  0
    9.0414    1.8149   30.8334 C   0  0  0  0  0  0  0  0  0  0  0  0
    8.9429    1.0351   29.5171 C   0  0  0  0  0  0  0  0  0  0  0  0
    7.6129    0.3049   29.3204 C   0  0  0  0  0  0  0  0  0  0  0  0
    7.4513   -0.2656   27.9083 C   0  0  0  0  0  0  0  0  0  0  0  0
    8.3840   -1.3364   27.5940 N   0  0  0  0  0  0  0  0  0  0  0  0
    9.5143   -1.1733   26.8262 C   0  0  0  0  0  0  0  0  0  0  0  0
   10.1533   -2.3847   26.6700 C   0  0  0  0  0  0  0  0  0  0  0  0
   11.3376   -2.6438   25.8267 C   0  0  0  0  0  0  0  0  0  0  0  0
   12.0511   -1.8520   24.9621 C   0  0  0  0  0  0  0  0  0  0  0  0
   11.8032   -0.4430   24.8018 C   0  0  0  0  0  0  0  0  0  0  0  0
   11.5578    0.6887   24.6882 N   0  0  0  0  0  0  0  0  0  0  0  0
   13.0490   -2.3979   24.0562 C   0  0  0  0  0  0  0  0  0  0  0  0
   14.1283   -1.8268   23.5316 N   0  0  0  0  0  0  0  0  0  0  0  0
   14.3723   -2.4799   22.3371 C   0  0  0  0  0  0  0  0  0  0  0  0
   15.2234   -2.1409   21.2708 C   0  0  0  0  0  0  0  0  0  0  0  0
   15.1902   -2.9121   20.0985 C   0  0  0  0  0  0  0  0  0  0  0  0
   14.3427   -4.0153   19.9958 C   0  0  0  0  0  0  0  0  0  0  0  0
   13.5084   -4.3858   21.0576 C   0  0  0  0  0  0  0  0  0  0  0  0
   13.5485   -3.5898   22.2092 C   0  0  0  0  0  0  0  0  0  0  0  0
   12.7877   -3.5714   23.3617 N   0  0  0  0  0  0  0  0  0  0  0  0
    9.3672   -3.3296   27.4708 C   0  0  0  0  0  0  0  0  0  0  0  0
    9.4605   -4.7089   27.7867 C   0  0  0  0  0  0  0  0  0  0  0  0
    8.5041   -5.3276   28.6178 C   0  0  0  0  0  0  0  0  0  0  0  0
    7.4355   -4.6069   29.1355 C   0  0  0  0  0  0  0  0  0  0  0  0
    7.3002   -3.2531   28.8371 C   0  0  0  0  0  0  0  0  0  0  0  0
    8.2736   -2.6394   28.0193 C   0  0  0  0  0  0  0  0  0  0  0  0
    7.2460    1.8466   32.9887 H   0  0  0  0  0  0  0  0  0  0  0  0
    7.6635    0.2537   33.6356 H   0  0  0  0  0  0  0  0  0  0  0  0
    6.8972    0.3866   32.0492 H   0  0  0  0  0  0  0  0  0  0  0  0
    9.6720    1.3975   32.8418 H   0  0  0  0  0  0  0  0  0  0  0  0
    9.3955   -0.0555   31.8914 H   0  0  0  0  0  0  0  0  0  0  0  0
    8.2669    2.5901   30.8709 H   0  0  0  0  0  0  0  0  0  0  0  0
   10.0034    2.3435   30.8180 H   0  0  0  0  0  0  0  0  0  0  0  0
    9.7723    0.3199   29.4642 H   0  0  0  0  0  0  0  0  0  0  0  0
    9.0878    1.7452   28.6933 H   0  0  0  0  0  0  0  0  0  0  0  0
    6.7884    1.0045   29.5027 H   0  0  0  0  0  0  0  0  0  0  0  0
    7.5242   -0.5018   30.0551 H   0  0  0  0  0  0  0  0  0  0  0  0
    6.4407   -0.6679   27.7728 H   0  0  0  0  0  0  0  0  0  0  0  0
    7.5814    0.5268   27.1639 H   0  0  0  0  0  0  0  0  0  0  0  0
    9.7450   -0.1868   26.4522 H   0  0  0  0  0  0  0  0  0  0  0  0
   11.6314   -3.6912   25.8681 H   0  0  0  0  0  0  0  0  0  0  0  0
   15.8586   -1.2656   21.3487 H   0  0  0  0  0  0  0  0  0  0  0  0
   15.8275   -2.6366   19.2618 H   0  0  0  0  0  0  0  0  0  0  0  0
   14.3179   -4.5853   19.0709 H   0  0  0  0  0  0  0  0  0  0  0  0
   12.8186   -5.2142   20.9580 H   0  0  0  0  0  0  0  0  0  0  0  0
   11.9775   -4.1500   23.5087 H   0  0  0  0  0  0  0  0  0  0  0  0
   10.2852   -5.2931   27.3915 H   0  0  0  0  0  0  0  0  0  0  0  0
    8.6130   -6.3817   28.8554 H   0  0  0  0  0  0  0  0  0  0  0  0
    6.7020   -5.0892   29.7736 H   0  0  0  0  0  0  0  0  0  0  0  0
    6.4575   -2.6887   29.2236 H   0  0  0  0  0  0  0  0  0  0  0  0
  1  2  1  0
  2  3  1  0
  3  4  1  0
  4  5  1  0
  5  6  1  0
  6  7  1  0
  7  8  1  0
  8  9  2  0
  9 10  1  0
 10 11  2  3
 11 12  1  0
 12 13  3  0
 11 14  1  0
 14 15  2  0
 15 16  1  0
 16 17  2  0
 17 18  1  0
 18 19  2  0
 19 20  1  0
 20 21  2  0
 21 22  1  0
  9 23  1  0
 23 24  2  0
 24 25  1  0
 25 26  2  0
 26 27  1  0
 27 28  2  0
 28  7  1  0
 22 14  1  0
 28 23  1  0
 21 16  1  0
  1 29  1  0
  1 30  1  0
  1 31  1  0
  2 32  1  0
  2 33  1  0
  3 34  1  0
  3 35  1  0
  4 36  1  0
  4 37  1  0
  5 38  1  0
  5 39  1  0
  6 40  1  0
  6 41  1  0
  8 42  1  0
 10 43  1  0
 17 44  1  0
 18 45  1  0
 19 46  1  0
 20 47  1  0
 22 48  1  0
 24 49  1  0
 25 50  1  0
 26 51  1  0
 27 52  1  0
M  END
>  <Energy>  (666) 
52.368623357994331

>  <compound_id>  (666) 
39968

>  <target_id>  (666) 
1

>  <reference_id>  (666) 
103

>  <inspiration_ids>  (666) 
[40, 103]

>  <energy_score>  (666) 
-12.060393957655663

>  <distance_score>  (666) 
7.960083944582023

>  <path>  (666) 
/opt/xchem-fragalysis-2/maxwin/BulkDock/SCRATCH/511017/C39968-P103/C39968-P103.minimised.mol

>  <scratch_subdir>  (666) 
/opt/xchem-fragalysis-2/maxwin/BulkDock/SCRATCH/511017/C39968-P103

>  <fragmenstein_runtime>  (666) 
12.298789501190186

>  <fragmenstein_outcome>  (666) 
too moved

>  <fragmenstein_mode>  (666) 
expansion

>  <fragmenstein_error>  (666) 


$$$$
C39969-P40
     RDKit          3D

 47 51  0  0  0  0  0  0  0  0999 V2000
    8.7806   -3.8323   26.9544 C   0  0  0  0  0  0  0  0  0  0  0  0
    9.8896   -3.9241   26.2457 N   0  0  0  0  0  0  0  0  0  0  0  0
   10.7278   -2.8719   26.6730 N   0  0  0  0  0  0  0  0  0  0  0  0
   11.7142   -2.3252   26.0963 C   0  0  0  0  0  0  0  0  0  0  0  0
   12.5627   -1.2062   26.5090 N   0  0  0  0  0  0  0  0  0  0  0  0
   12.4878   -0.3523   27.6057 C   0  0  0  0  0  0  0  0  0  0  0  0
   11.5762   -0.5257   28.6514 C   0  0  0  0  0  0  0  0  0  0  0  0
   11.5515    0.3504   29.7422 C   0  0  0  0  0  0  0  0  0  0  0  0
   12.4466    1.4143   29.8054 C   0  0  0  0  0  0  0  0  0  0  0  0
   13.3682    1.5993   28.7798 C   0  0  0  0  0  0  0  0  0  0  0  0
   13.3882    0.7202   27.6931 C   0  0  0  0  0  0  0  0  0  0  0  0
   12.2266   -2.7824   24.7664 C   0  0  0  0  0  0  0  0  0  0  0  0
   13.2319   -2.1409   24.1635 N   0  0  0  0  0  0  0  0  0  0  0  0
   13.4130   -2.7573   22.9451 C   0  0  0  0  0  0  0  0  0  0  0  0
   14.2834   -2.4341   21.8871 C   0  0  0  0  0  0  0  0  0  0  0  0
   14.2831   -3.2283   20.7333 C   0  0  0  0  0  0  0  0  0  0  0  0
   13.4379   -4.3311   20.6399 C   0  0  0  0  0  0  0  0  0  0  0  0
   12.5630   -4.6664   21.6849 C   0  0  0  0  0  0  0  0  0  0  0  0
   12.5624   -3.8484   22.8226 C   0  0  0  0  0  0  0  0  0  0  0  0
   11.8332   -3.8374   23.9943 N   0  0  0  0  0  0  0  0  0  0  0  0
    7.6304   -4.7538   26.9294 C   0  0  0  0  0  0  0  0  0  0  0  0
    7.5604   -5.9802   26.2979 C   0  0  0  0  0  0  0  0  0  0  0  0
    6.2954   -6.4893   26.4434 N   0  0  0  0  0  0  0  0  0  0  0  0
    5.5372   -5.6803   27.2564 C   0  0  0  0  0  0  0  0  0  0  0  0
    4.2145   -5.8355   27.7074 C   0  0  0  0  0  0  0  0  0  0  0  0
    3.6841   -4.8479   28.5404 C   0  0  0  0  0  0  0  0  0  0  0  0
    4.4514   -3.7451   28.8987 C   0  0  0  0  0  0  0  0  0  0  0  0
    5.7678   -3.6007   28.4270 C   0  0  0  0  0  0  0  0  0  0  0  0
    6.3405   -4.5850   27.5868 C   0  0  0  0  0  0  0  0  0  0  0  0
    8.6604   -2.9896   27.6612 H   0  0  0  0  0  0  0  0  0  0  0  0
   13.2086   -0.9870   25.7496 H   0  0  0  0  0  0  0  0  0  0  0  0
   10.8700   -1.3500   28.6391 H   0  0  0  0  0  0  0  0  0  0  0  0
   10.8326    0.1953   30.5421 H   0  0  0  0  0  0  0  0  0  0  0  0
   12.4282    2.0943   30.6525 H   0  0  0  0  0  0  0  0  0  0  0  0
   14.0736    2.4247   28.8219 H   0  0  0  0  0  0  0  0  0  0  0  0
   14.1188    0.8818   26.9036 H   0  0  0  0  0  0  0  0  0  0  0  0
   14.9399   -1.5764   21.9761 H   0  0  0  0  0  0  0  0  0  0  0  0
   14.9497   -2.9878   19.9095 H   0  0  0  0  0  0  0  0  0  0  0  0
   13.4459   -4.9358   19.7336 H   0  0  0  0  0  0  0  0  0  0  0  0
   11.9007   -5.5164   21.5819 H   0  0  0  0  0  0  0  0  0  0  0  0
   11.0968   -4.4559   24.2911 H   0  0  0  0  0  0  0  0  0  0  0  0
    8.3053   -6.5208   25.7344 H   0  0  0  0  0  0  0  0  0  0  0  0
    5.9705   -7.3524   26.0305 H   0  0  0  0  0  0  0  0  0  0  0  0
    3.6239   -6.6950   27.4115 H   0  0  0  0  0  0  0  0  0  0  0  0
    2.6636   -4.9310   28.9037 H   0  0  0  0  0  0  0  0  0  0  0  0
    4.0297   -2.9743   29.5401 H   0  0  0  0  0  0  0  0  0  0  0  0
    6.3445   -2.7235   28.7088 H   0  0  0  0  0  0  0  0  0  0  0  0
  1  2  2  3
  2  3  1  0
  3  4  2  3
  4  5  1  0
  5  6  1  0
  6  7  2  0
  7  8  1  0
  8  9  2  0
  9 10  1  0
 10 11  2  0
  4 12  1  0
 12 13  2  0
 13 14  1  0
 14 15  2  0
 15 16  1  0
 16 17  2  0
 17 18  1  0
 18 19  2  0
 19 20  1  0
  1 21  1  0
 21 22  2  0
 22 23  1  0
 23 24  1  0
 24 25  2  0
 25 26  1  0
 26 27  2  0
 27 28  1  0
 28 29  2  0
 11  6  1  0
 20 12  1  0
 29 21  1  0
 19 14  1  0
 29 24  1  0
  1 30  1  0
  5 31  1  0
  7 32  1  0
  8 33  1  0
  9 34  1  0
 10 35  1  0
 11 36  1  0
 15 37  1  0
 16 38  1  0
 17 39  1  0
 18 40  1  0
 20 41  1  0
 22 42  1  0
 23 43  1  0
 25 44  1  0
 26 45  1  0
 27 46  1  0
 28 47  1  0
M  END
>  <Energy>  (667) 
95.68104279893231

>  <compound_id>  (667) 
39969

>  <target_id>  (667) 
1

>  <reference_id>  (667) 
40

>  <inspiration_ids>  (667) 
[40, 103]

>  <energy_score>  (667) 
-26.75092231862658

>  <distance_score>  (667) 
7.139200526409337

>  <path>  (667) 
/opt/xchem-fragalysis-2/maxwin/BulkDock/SCRATCH/511017/C39969-P40/C39969-P40.minimised.mol

>  <scratch_subdir>  (667) 
/opt/xchem-fragalysis-2/maxwin/BulkDock/SCRATCH/511017/C39969-P40

>  <fragmenstein_runtime>  (667) 
22.620569467544556

>  <fragmenstein_outcome>  (667) 
too moved

>  <fragmenstein_mode>  (667) 
expansion

>  <fragmenstein_error>  (667) 


$$$$
C39969-P103
     RDKit          3D

 47 51  0  0  0  0  0  0  0  0999 V2000
    6.7449   -0.9874   21.0977 C   0  0  0  0  0  0  0  0  0  0  0  0
    8.2757   -0.4280   20.8847 N   0  0  0  0  0  0  0  0  0  0  0  0
    9.5661    0.0479   22.3366 N   0  0  0  0  0  0  0  0  0  0  0  0
   10.5922    0.6710   22.8481 C   0  0  0  0  0  0  0  0  0  0  0  0
   11.0372    0.8310   24.2878 N   0  0  0  0  0  0  0  0  0  0  0  0
   10.5417    0.2905   25.4648 C   0  0  0  0  0  0  0  0  0  0  0  0
   10.6938   -1.0625   25.7756 C   0  0  0  0  0  0  0  0  0  0  0  0
   10.2536   -1.5703   27.0003 C   0  0  0  0  0  0  0  0  0  0  0  0
    9.7101   -0.7154   27.9555 C   0  0  0  0  0  0  0  0  0  0  0  0
    9.6259    0.6490   27.6931 C   0  0  0  0  0  0  0  0  0  0  0  0
   10.0585    1.1485   26.4625 C   0  0  0  0  0  0  0  0  0  0  0  0
   11.7156    1.3453   22.1225 C   0  0  0  0  0  0  0  0  0  0  0  0
   11.8142    2.5951   21.7002 N   0  0  0  0  0  0  0  0  0  0  0  0
   13.0219    2.6426   21.0043 C   0  0  0  0  0  0  0  0  0  0  0  0
   13.4975    3.5799   20.0768 C   0  0  0  0  0  0  0  0  0  0  0  0
   14.6577    3.2762   19.3465 C   0  0  0  0  0  0  0  0  0  0  0  0
   15.3624    2.0891   19.5649 C   0  0  0  0  0  0  0  0  0  0  0  0
   14.9364    1.1633   20.5190 C   0  0  0  0  0  0  0  0  0  0  0  0
   13.7585    1.4769   21.1997 C   0  0  0  0  0  0  0  0  0  0  0  0
   12.9742    0.7453   22.0488 N   0  0  0  0  0  0  0  0  0  0  0  0
    5.5705   -1.8625   22.4837 C   0  0  0  0  0  0  0  0  0  0  0  0
    4.6220   -1.3197   23.1925 C   0  0  0  0  0  0  0  0  0  0  0  0
    4.8153   -0.4288   24.2343 N   0  0  0  0  0  0  0  0  0  0  0  0
    5.1706   -1.2426   25.2603 C   0  0  0  0  0  0  0  0  0  0  0  0
    4.9470   -1.0292   26.6465 C   0  0  0  0  0  0  0  0  0  0  0  0
    4.0213   -1.8532   27.2248 C   0  0  0  0  0  0  0  0  0  0  0  0
    3.4377   -2.7347   26.3666 C   0  0  0  0  0  0  0  0  0  0  0  0
    4.0140   -2.9818   25.0488 C   0  0  0  0  0  0  0  0  0  0  0  0
    5.3111   -2.3054   24.3453 C   0  0  0  0  0  0  0  0  0  0  0  0
    6.2949   -0.0180   20.7209 H   0  0  0  0  0  0  0  0  0  0  0  0
   11.9290    1.3107   24.3032 H   0  0  0  0  0  0  0  0  0  0  0  0
   11.1487   -1.7438   25.0614 H   0  0  0  0  0  0  0  0  0  0  0  0
   10.3309   -2.6357   27.2002 H   0  0  0  0  0  0  0  0  0  0  0  0
    9.3570   -1.1130   28.9028 H   0  0  0  0  0  0  0  0  0  0  0  0
    9.2173    1.3231   28.4406 H   0  0  0  0  0  0  0  0  0  0  0  0
    9.9863    2.2160   26.2684 H   0  0  0  0  0  0  0  0  0  0  0  0
   12.9251    4.4775   19.8704 H   0  0  0  0  0  0  0  0  0  0  0  0
   15.0060    3.9782   18.5921 H   0  0  0  0  0  0  0  0  0  0  0  0
   16.2562    1.8831   18.9798 H   0  0  0  0  0  0  0  0  0  0  0  0
   15.4613    0.2274   20.6747 H   0  0  0  0  0  0  0  0  0  0  0  0
   13.1124   -0.2280   22.2950 H   0  0  0  0  0  0  0  0  0  0  0  0
    3.6854   -1.8645   23.4065 H   0  0  0  0  0  0  0  0  0  0  0  0
    4.1709    0.3317   24.3481 H   0  0  0  0  0  0  0  0  0  0  0  0
    5.1507   -0.0634   27.0990 H   0  0  0  0  0  0  0  0  0  0  0  0
    3.6220   -1.6594   28.2112 H   0  0  0  0  0  0  0  0  0  0  0  0
    2.4926   -3.1818   26.6511 H   0  0  0  0  0  0  0  0  0  0  0  0
    3.2830   -3.3710   24.3640 H   0  0  0  0  0  0  0  0  0  0  0  0
  1  2  2  3
  2  3  1  0
  3  4  2  3
  4  5  1  0
  5  6  1  0
  6  7  2  0
  7  8  1  0
  8  9  2  0
  9 10  1  0
 10 11  2  0
  4 12  1  0
 12 13  2  0
 13 14  1  0
 14 15  2  0
 15 16  1  0
 16 17  2  0
 17 18  1  0
 18 19  2  0
 19 20  1  0
  1 21  1  0
 21 22  2  0
 22 23  1  0
 23 24  1  0
 24 25  2  0
 25 26  1  0
 26 27  2  0
 27 28  1  0
 28 29  2  0
 11  6  1  0
 20 12  1  0
 29 21  1  0
 19 14  1  0
 29 24  1  0
  1 30  1  0
  5 31  1  0
  7 32  1  0
  8 33  1  0
  9 34  1  0
 10 35  1  0
 11 36  1  0
 15 37  1  0
 16 38  1  0
 17 39  1  0
 18 40  1  0
 20 41  1  0
 22 42  1  0
 23 43  1  0
 25 44  1  0
 26 45  1  0
 27 46  1  0
 28 47  1  0
M  END
>  <Energy>  (668) 
788.39581683341783

>  <compound_id>  (668) 
39969

>  <target_id>  (668) 
1

>  <reference_id>  (668) 
103

>  <inspiration_ids>  (668) 
[40, 103]

>  <energy_score>  (668) 
665.963851715862

>  <distance_score>  (668) 
6.621632854959612

>  <path>  (668) 
/opt/xchem-fragalysis-2/maxwin/BulkDock/SCRATCH/511017/C39969-P103/C39969-P103.minimised.mol

>  <scratch_subdir>  (668) 
/opt/xchem-fragalysis-2/maxwin/BulkDock/SCRATCH/511017/C39969-P103

>  <fragmenstein_runtime>  (668) 
15.374919891357422

>  <fragmenstein_outcome>  (668) 
too moved

>  <fragmenstein_mode>  (668) 
expansion

>  <fragmenstein_error>  (668) 


$$$$
C39998-P40
     RDKit          3D

 51 54  0  0  0  0  0  0  0  0999 V2000
    6.2384   -6.3315   28.2169 C   0  0  0  0  0  0  0  0  0  0  0  0
    6.3531   -5.3865   27.0182 C   0  0  0  0  0  0  0  0  0  0  0  0
    5.9342   -6.0818   25.7228 C   0  0  0  0  0  0  0  0  0  0  0  0
    5.5998   -4.1487   27.2338 N   0  0  0  0  0  0  0  0  0  0  0  0
    4.2399   -4.0889   27.4472 C   0  0  0  0  0  0  0  0  0  0  0  0
    3.8907   -2.7669   27.5914 C   0  0  0  0  0  0  0  0  0  0  0  0
    5.0732   -1.9888   27.4431 C   0  0  0  0  0  0  0  0  0  0  0  0
    5.3499   -0.6061   27.4648 C   0  0  0  0  0  0  0  0  0  0  0  0
    6.6652   -0.1316   27.2415 C   0  0  0  0  0  0  0  0  0  0  0  0
    7.7279   -1.0083   27.0010 C   0  0  0  0  0  0  0  0  0  0  0  0
    9.1815   -0.5535   26.7679 C   0  0  0  0  0  0  0  0  0  0  0  0
   10.0076   -1.2657   27.2638 O   0  0  0  0  0  0  0  0  0  0  0  0
    9.3247    0.6606   25.9966 N   0  0  0  0  0  0  0  0  0  0  0  0
   10.5227    1.4593   25.6583 C   0  0  0  0  0  0  0  0  0  0  0  0
   11.2349    1.0449   24.3457 C   0  0  0  0  0  0  0  0  0  0  0  0
   12.4841    1.8796   23.9538 C   0  0  0  0  0  0  0  0  0  0  0  0
   13.3528    1.3309   22.8346 C   0  0  0  0  0  0  0  0  0  0  0  0
   13.9717    2.0218   21.8882 N   0  0  0  0  0  0  0  0  0  0  0  0
   14.6357    1.0965   21.1041 C   0  0  0  0  0  0  0  0  0  0  0  0
   15.4089    1.2680   19.9444 C   0  0  0  0  0  0  0  0  0  0  0  0
   15.8961    0.1320   19.2759 C   0  0  0  0  0  0  0  0  0  0  0  0
   15.6311   -1.1514   19.7588 C   0  0  0  0  0  0  0  0  0  0  0  0
   14.8918   -1.3404   20.9316 C   0  0  0  0  0  0  0  0  0  0  0  0
   14.4198   -0.1903   21.5742 C   0  0  0  0  0  0  0  0  0  0  0  0
   13.6651   -0.0065   22.7069 N   0  0  0  0  0  0  0  0  0  0  0  0
    7.4581   -2.3945   27.0440 C   0  0  0  0  0  0  0  0  0  0  0  0
    6.1347   -2.8700   27.2332 C   0  0  0  0  0  0  0  0  0  0  0  0
    5.2143   -6.6964   28.3522 H   0  0  0  0  0  0  0  0  0  0  0  0
    6.5373   -5.8269   29.1423 H   0  0  0  0  0  0  0  0  0  0  0  0
    6.8874   -7.2036   28.0835 H   0  0  0  0  0  0  0  0  0  0  0  0
    7.4082   -5.1121   26.9204 H   0  0  0  0  0  0  0  0  0  0  0  0
    6.5569   -6.9634   25.5383 H   0  0  0  0  0  0  0  0  0  0  0  0
    6.0452   -5.4080   24.8676 H   0  0  0  0  0  0  0  0  0  0  0  0
    4.8896   -6.4099   25.7561 H   0  0  0  0  0  0  0  0  0  0  0  0
    3.6394   -4.9864   27.4765 H   0  0  0  0  0  0  0  0  0  0  0  0
    2.8928   -2.3875   27.7678 H   0  0  0  0  0  0  0  0  0  0  0  0
    4.5461    0.1044   27.6399 H   0  0  0  0  0  0  0  0  0  0  0  0
    6.8346    0.9407   27.2852 H   0  0  0  0  0  0  0  0  0  0  0  0
    8.4086    1.0411   25.8085 H   0  0  0  0  0  0  0  0  0  0  0  0
   10.1979    2.5026   25.5936 H   0  0  0  0  0  0  0  0  0  0  0  0
   11.2201    1.3615   26.4970 H   0  0  0  0  0  0  0  0  0  0  0  0
   10.5042    1.0953   23.5312 H   0  0  0  0  0  0  0  0  0  0  0  0
   11.5263   -0.0001   24.4905 H   0  0  0  0  0  0  0  0  0  0  0  0
   12.1573    2.8891   23.6765 H   0  0  0  0  0  0  0  0  0  0  0  0
   13.1255    1.9884   24.8373 H   0  0  0  0  0  0  0  0  0  0  0  0
   15.5980    2.2653   19.5646 H   0  0  0  0  0  0  0  0  0  0  0  0
   16.4800    0.2575   18.3673 H   0  0  0  0  0  0  0  0  0  0  0  0
   16.0134   -2.0181   19.2230 H   0  0  0  0  0  0  0  0  0  0  0  0
   14.6900   -2.3344   21.3172 H   0  0  0  0  0  0  0  0  0  0  0  0
   13.2313   -0.7465   23.2417 H   0  0  0  0  0  0  0  0  0  0  0  0
    8.2752   -3.0916   26.8725 H   0  0  0  0  0  0  0  0  0  0  0  0
  1  2  1  0
  2  3  1  0
  2  4  1  0
  4  5  1  0
  5  6  2  0
  6  7  1  0
  7  8  2  0
  8  9  1  0
  9 10  2  0
 10 11  1  0
 11 12  2  0
 11 13  1  0
 13 14  1  0
 14 15  1  0
 15 16  1  0
 16 17  1  0
 17 18  2  0
 18 19  1  0
 19 20  2  0
 20 21  1  0
 21 22  2  0
 22 23  1  0
 23 24  2  0
 24 25  1  0
 10 26  1  0
 26 27  2  0
 27  4  1  0
 27  7  1  0
 25 17  1  0
 24 19  1  0
  1 28  1  0
  1 29  1  0
  1 30  1  0
  2 31  1  0
  3 32  1  0
  3 33  1  0
  3 34  1  0
  5 35  1  0
  6 36  1  0
  8 37  1  0
  9 38  1  0
 13 39  1  0
 14 40  1  0
 14 41  1  0
 15 42  1  0
 15 43  1  0
 16 44  1  0
 16 45  1  0
 20 46  1  0
 21 47  1  0
 22 48  1  0
 23 49  1  0
 25 50  1  0
 26 51  1  0
M  END
>  <Energy>  (669) 
35.648823602937547

>  <compound_id>  (669) 
39998

>  <target_id>  (669) 
1

>  <reference_id>  (669) 
40

>  <inspiration_ids>  (669) 
[40, 103]

>  <energy_score>  (669) 
-15.947327639146692

>  <distance_score>  (669) 
6.803379482543676

>  <path>  (669) 
/opt/xchem-fragalysis-2/maxwin/BulkDock/SCRATCH/511017/C39998-P40/C39998-P40.minimised.mol

>  <scratch_subdir>  (669) 
/opt/xchem-fragalysis-2/maxwin/BulkDock/SCRATCH/511017/C39998-P40

>  <fragmenstein_runtime>  (669) 
25.180060148239136

>  <fragmenstein_outcome>  (669) 
too moved

>  <fragmenstein_mode>  (669) 
expansion

>  <fragmenstein_error>  (669) 


$$$$
C39998-P103
     RDKit          3D

 51 54  0  0  0  0  0  0  0  0999 V2000
    1.7122    1.8209   27.8616 C   0  0  0  0  0  0  0  0  0  0  0  0
    3.1570    1.3861   27.6135 C   0  0  0  0  0  0  0  0  0  0  0  0
    4.0511    1.7200   28.8082 C   0  0  0  0  0  0  0  0  0  0  0  0
    3.2515   -0.0284   27.2581 N   0  0  0  0  0  0  0  0  0  0  0  0
    2.8348   -1.0718   28.0509 C   0  0  0  0  0  0  0  0  0  0  0  0
    3.0894   -2.2401   27.3710 C   0  0  0  0  0  0  0  0  0  0  0  0
    3.7204   -1.8926   26.1495 C   0  0  0  0  0  0  0  0  0  0  0  0
    4.1403   -2.5492   24.9832 C   0  0  0  0  0  0  0  0  0  0  0  0
    4.7920   -1.9374   23.8747 C   0  0  0  0  0  0  0  0  0  0  0  0
    4.9058   -0.6325   23.6947 C   0  0  0  0  0  0  0  0  0  0  0  0
    5.0541    0.0360   21.8876 C   0  0  0  0  0  0  0  0  0  0  0  0
    4.1484    0.7774   21.6560 O   0  0  0  0  0  0  0  0  0  0  0  0
    6.5659   -0.4088   20.8376 N   0  0  0  0  0  0  0  0  0  0  0  0
    7.1149    0.2075   19.3222 C   0  0  0  0  0  0  0  0  0  0  0  0
    8.1694    0.2376   17.7075 C   0  0  0  0  0  0  0  0  0  0  0  0
    9.2007    0.9885   16.7309 C   0  0  0  0  0  0  0  0  0  0  0  0
   10.2335    0.1162   16.1025 C   0  0  0  0  0  0  0  0  0  0  0  0
   10.2362   -1.1962   16.0673 N   0  0  0  0  0  0  0  0  0  0  0  0
   11.5507   -1.5458   15.8535 C   0  0  0  0  0  0  0  0  0  0  0  0
   12.1583   -2.8036   15.9385 C   0  0  0  0  0  0  0  0  0  0  0  0
   13.5548   -2.8645   15.9121 C   0  0  0  0  0  0  0  0  0  0  0  0
   14.3239   -1.7202   15.6964 C   0  0  0  0  0  0  0  0  0  0  0  0
   13.7285   -0.4648   15.5438 C   0  0  0  0  0  0  0  0  0  0  0  0
   12.3394   -0.4196   15.6604 C   0  0  0  0  0  0  0  0  0  0  0  0
   11.4445    0.6196   15.6771 N   0  0  0  0  0  0  0  0  0  0  0  0
    4.2310    0.0517   24.8824 C   0  0  0  0  0  0  0  0  0  0  0  0
    3.8136   -0.5245   26.1050 C   0  0  0  0  0  0  0  0  0  0  0  0
    1.0783    1.5882   26.9998 H   0  0  0  0  0  0  0  0  0  0  0  0
    1.2814    1.3216   28.7361 H   0  0  0  0  0  0  0  0  0  0  0  0
    1.6597    2.9011   28.0345 H   0  0  0  0  0  0  0  0  0  0  0  0
    3.5296    1.9569   26.7554 H   0  0  0  0  0  0  0  0  0  0  0  0
    5.0873    1.4201   28.6163 H   0  0  0  0  0  0  0  0  0  0  0  0
    4.0435    2.7968   29.0075 H   0  0  0  0  0  0  0  0  0  0  0  0
    3.7196    1.2077   29.7180 H   0  0  0  0  0  0  0  0  0  0  0  0
    2.3680   -0.9016   29.0110 H   0  0  0  0  0  0  0  0  0  0  0  0
    2.8117   -3.2229   27.7122 H   0  0  0  0  0  0  0  0  0  0  0  0
    3.9466   -3.5938   24.9580 H   0  0  0  0  0  0  0  0  0  0  0  0
    5.0901   -2.3036   22.9286 H   0  0  0  0  0  0  0  0  0  0  0  0
    7.0877   -1.0959   21.2447 H   0  0  0  0  0  0  0  0  0  0  0  0
    7.4556    1.1766   19.7097 H   0  0  0  0  0  0  0  0  0  0  0  0
    7.7946   -0.6301   19.4953 H   0  0  0  0  0  0  0  0  0  0  0  0
    7.9395    1.3227   17.7966 H   0  0  0  0  0  0  0  0  0  0  0  0
    7.5706   -0.3003   16.9581 H   0  0  0  0  0  0  0  0  0  0  0  0
    8.6333    1.4501   15.9119 H   0  0  0  0  0  0  0  0  0  0  0  0
    9.7119    1.8228   17.2148 H   0  0  0  0  0  0  0  0  0  0  0  0
   11.5642   -3.6959   16.0995 H   0  0  0  0  0  0  0  0  0  0  0  0
   14.0481   -3.8210   16.0651 H   0  0  0  0  0  0  0  0  0  0  0  0
   15.4081   -1.8058   15.6548 H   0  0  0  0  0  0  0  0  0  0  0  0
   14.3250    0.4279   15.3930 H   0  0  0  0  0  0  0  0  0  0  0  0
   11.6879    1.5987   15.6376 H   0  0  0  0  0  0  0  0  0  0  0  0
    3.6954    0.9783   24.6655 H   0  0  0  0  0  0  0  0  0  0  0  0
  1  2  1  0
  2  3  1  0
  2  4  1  0
  4  5  1  0
  5  6  2  0
  6  7  1  0
  7  8  2  0
  8  9  1  0
  9 10  2  0
 10 11  1  0
 11 12  2  0
 11 13  1  0
 13 14  1  0
 14 15  1  0
 15 16  1  0
 16 17  1  0
 17 18  2  0
 18 19  1  0
 19 20  2  0
 20 21  1  0
 21 22  2  0
 22 23  1  0
 23 24  2  0
 24 25  1  0
 10 26  1  0
 26 27  2  0
 27  4  1  0
 27  7  1  0
 25 17  1  0
 24 19  1  0
  1 28  1  0
  1 29  1  0
  1 30  1  0
  2 31  1  0
  3 32  1  0
  3 33  1  0
  3 34  1  0
  5 35  1  0
  6 36  1  0
  8 37  1  0
  9 38  1  0
 13 39  1  0
 14 40  1  0
 14 41  1  0
 15 42  1  0
 15 43  1  0
 16 44  1  0
 16 45  1  0
 20 46  1  0
 21 47  1  0
 22 48  1  0
 23 49  1  0
 25 50  1  0
 26 51  1  0
M  END
>  <Energy>  (670) 
394.30683917375586

>  <compound_id>  (670) 
39998

>  <target_id>  (670) 
1

>  <reference_id>  (670) 
103

>  <inspiration_ids>  (670) 
[40, 103]

>  <energy_score>  (670) 
342.7106879316709

>  <distance_score>  (670) 
5.72603075664181

>  <path>  (670) 
/opt/xchem-fragalysis-2/maxwin/BulkDock/SCRATCH/511017/C39998-P103/C39998-P103.minimised.mol

>  <scratch_subdir>  (670) 
/opt/xchem-fragalysis-2/maxwin/BulkDock/SCRATCH/511017/C39998-P103

>  <fragmenstein_runtime>  (670) 
15.75031304359436

>  <fragmenstein_outcome>  (670) 
too moved

>  <fragmenstein_mode>  (670) 
expansion

>  <fragmenstein_error>  (670) 


$$$$
C39999-P40
     RDKit          3D

 52 55  0  0  0  0  0  0  0  0999 V2000
    5.2233    3.1214   28.1080 C   0  0  0  0  0  0  0  0  0  0  0  0
    5.2874    2.0708   27.1526 O   0  0  0  0  0  0  0  0  0  0  0  0
    4.0599    1.3393   27.0853 C   0  0  0  0  0  0  0  0  0  0  0  0
    4.2166    0.1404   26.1543 C   0  0  0  0  0  0  0  0  0  0  0  0
    4.7248   -1.0444   26.8351 N   0  0  0  0  0  0  0  0  0  0  0  0
    3.9352   -2.0719   27.2977 C   0  0  0  0  0  0  0  0  0  0  0  0
    4.7619   -3.0487   27.7990 C   0  0  0  0  0  0  0  0  0  0  0  0
    6.0991   -2.5790   27.6760 C   0  0  0  0  0  0  0  0  0  0  0  0
    7.3497   -3.1067   28.0351 C   0  0  0  0  0  0  0  0  0  0  0  0
    8.5141   -2.3519   27.7884 C   0  0  0  0  0  0  0  0  0  0  0  0
    8.4842   -1.0838   27.1765 C   0  0  0  0  0  0  0  0  0  0  0  0
    9.8114   -0.3188   27.0316 C   0  0  0  0  0  0  0  0  0  0  0  0
   10.6198   -0.5840   27.8757 O   0  0  0  0  0  0  0  0  0  0  0  0
    9.8890    0.5771   25.9033 N   0  0  0  0  0  0  0  0  0  0  0  0
   10.9471    1.5204   25.4860 C   0  0  0  0  0  0  0  0  0  0  0  0
   11.6383    1.0936   24.1762 C   0  0  0  0  0  0  0  0  0  0  0  0
   12.8769    1.8882   23.7020 C   0  0  0  0  0  0  0  0  0  0  0  0
   13.6594    1.2559   22.5611 C   0  0  0  0  0  0  0  0  0  0  0  0
   14.3109    1.8833   21.5932 N   0  0  0  0  0  0  0  0  0  0  0  0
   14.8653    0.8983   20.7976 C   0  0  0  0  0  0  0  0  0  0  0  0
   15.6268    0.9940   19.6209 C   0  0  0  0  0  0  0  0  0  0  0  0
   15.9923   -0.1840   18.9474 C   0  0  0  0  0  0  0  0  0  0  0  0
   15.6253   -1.4361   19.4450 C   0  0  0  0  0  0  0  0  0  0  0  0
   14.8980   -1.5525   20.6345 C   0  0  0  0  0  0  0  0  0  0  0  0
   14.5407   -0.3618   21.2776 C   0  0  0  0  0  0  0  0  0  0  0  0
   13.8193   -0.1071   22.4173 N   0  0  0  0  0  0  0  0  0  0  0  0
    7.2314   -0.5548   26.8218 C   0  0  0  0  0  0  0  0  0  0  0  0
    6.0580   -1.3170   27.0751 C   0  0  0  0  0  0  0  0  0  0  0  0
    4.4263    3.8254   27.8503 H   0  0  0  0  0  0  0  0  0  0  0  0
    5.0598    2.7162   29.1111 H   0  0  0  0  0  0  0  0  0  0  0  0
    6.1780    3.6538   28.0981 H   0  0  0  0  0  0  0  0  0  0  0  0
    3.7511    1.0247   28.0893 H   0  0  0  0  0  0  0  0  0  0  0  0
    3.2956    2.0099   26.6759 H   0  0  0  0  0  0  0  0  0  0  0  0
    3.2408   -0.1356   25.7498 H   0  0  0  0  0  0  0  0  0  0  0  0
    4.8849    0.3531   25.3139 H   0  0  0  0  0  0  0  0  0  0  0  0
    2.8573   -2.0224   27.2305 H   0  0  0  0  0  0  0  0  0  0  0  0
    4.4490   -3.9892   28.2296 H   0  0  0  0  0  0  0  0  0  0  0  0
    7.4288   -4.0830   28.5027 H   0  0  0  0  0  0  0  0  0  0  0  0
    9.4741   -2.7731   28.0858 H   0  0  0  0  0  0  0  0  0  0  0  0
    9.0465    0.4886   25.3544 H   0  0  0  0  0  0  0  0  0  0  0  0
   10.4762    2.5008   25.3659 H   0  0  0  0  0  0  0  0  0  0  0  0
   11.6783    1.5772   26.2985 H   0  0  0  0  0  0  0  0  0  0  0  0
   11.9342    0.0531   24.3430 H   0  0  0  0  0  0  0  0  0  0  0  0
   10.8798    1.1334   23.3873 H   0  0  0  0  0  0  0  0  0  0  0  0
   13.5669    2.0110   24.5456 H   0  0  0  0  0  0  0  0  0  0  0  0
   12.5615    2.8932   23.3981 H   0  0  0  0  0  0  0  0  0  0  0  0
   15.8971    1.9682   19.2304 H   0  0  0  0  0  0  0  0  0  0  0  0
   16.5635   -0.1156   18.0248 H   0  0  0  0  0  0  0  0  0  0  0  0
   15.9144   -2.3364   18.9060 H   0  0  0  0  0  0  0  0  0  0  0  0
   14.6136   -2.5232   21.0280 H   0  0  0  0  0  0  0  0  0  0  0  0
   13.3377   -0.8051   22.9683 H   0  0  0  0  0  0  0  0  0  0  0  0
    7.1478    0.4404   26.3993 H   0  0  0  0  0  0  0  0  0  0  0  0
  1  2  1  0
  2  3  1  0
  3  4  1  0
  4  5  1  0
  5  6  1  0
  6  7  2  0
  7  8  1  0
  8  9  2  0
  9 10  1  0
 10 11  2  0
 11 12  1  0
 12 13  2  0
 12 14  1  0
 14 15  1  0
 15 16  1  0
 16 17  1  0
 17 18  1  0
 18 19  2  0
 19 20  1  0
 20 21  2  0
 21 22  1  0
 22 23  2  0
 23 24  1  0
 24 25  2  0
 25 26  1  0
 11 27  1  0
 27 28  2  0
 28  5  1  0
 28  8  1  0
 26 18  1  0
 25 20  1  0
  1 29  1  0
  1 30  1  0
  1 31  1  0
  3 32  1  0
  3 33  1  0
  4 34  1  0
  4 35  1  0
  6 36  1  0
  7 37  1  0
  9 38  1  0
 10 39  1  0
 14 40  1  0
 15 41  1  0
 15 42  1  0
 16 43  1  0
 16 44  1  0
 17 45  1  0
 17 46  1  0
 21 47  1  0
 22 48  1  0
 23 49  1  0
 24 50  1  0
 26 51  1  0
 27 52  1  0
M  END
>  <Energy>  (671) 
46.201794453991688

>  <compound_id>  (671) 
39999

>  <target_id>  (671) 
1

>  <reference_id>  (671) 
40

>  <inspiration_ids>  (671) 
[40, 103]

>  <energy_score>  (671) 
-16.546440442721376

>  <distance_score>  (671) 
6.851903277995124

>  <path>  (671) 
/opt/xchem-fragalysis-2/maxwin/BulkDock/SCRATCH/511017/C39999-P40/C39999-P40.minimised.mol

>  <scratch_subdir>  (671) 
/opt/xchem-fragalysis-2/maxwin/BulkDock/SCRATCH/511017/C39999-P40

>  <fragmenstein_runtime>  (671) 
22.101975917816162

>  <fragmenstein_outcome>  (671) 
too moved

>  <fragmenstein_mode>  (671) 
expansion

>  <fragmenstein_error>  (671) 


$$$$
C39999-P103
     RDKit          3D

 52 55  0  0  0  0  0  0  0  0999 V2000
    1.1792    1.9122   28.2830 C   0  0  0  0  0  0  0  0  0  0  0  0
    0.9908    0.9522   29.3107 O   0  0  0  0  0  0  0  0  0  0  0  0
    0.0658   -0.0877   28.9890 C   0  0  0  0  0  0  0  0  0  0  0  0
    0.4724   -0.9885   27.8120 C   0  0  0  0  0  0  0  0  0  0  0  0
    1.7127   -1.7148   27.9953 N   0  0  0  0  0  0  0  0  0  0  0  0
    1.9275   -2.4740   29.1242 C   0  0  0  0  0  0  0  0  0  0  0  0
    3.2736   -2.4316   29.3683 C   0  0  0  0  0  0  0  0  0  0  0  0
    3.8750   -1.8133   28.2426 C   0  0  0  0  0  0  0  0  0  0  0  0
    5.1870   -1.5111   27.9238 C   0  0  0  0  0  0  0  0  0  0  0  0
    5.4823   -1.2049   26.5797 C   0  0  0  0  0  0  0  0  0  0  0  0
    4.5662   -1.1507   25.4645 C   0  0  0  0  0  0  0  0  0  0  0  0
    5.1957   -1.9092   24.2057 C   0  0  0  0  0  0  0  0  0  0  0  0
    5.8446   -2.7814   24.5748 O   0  0  0  0  0  0  0  0  0  0  0  0
    5.0082   -1.4751   22.8355 N   0  0  0  0  0  0  0  0  0  0  0  0
    5.7285   -1.9956   21.3875 C   0  0  0  0  0  0  0  0  0  0  0  0
    7.1220   -0.9884   20.4817 C   0  0  0  0  0  0  0  0  0  0  0  0
    7.3660   -0.4249   18.9803 C   0  0  0  0  0  0  0  0  0  0  0  0
    8.3488    0.0680   17.5008 C   0  0  0  0  0  0  0  0  0  0  0  0
    8.9387   -0.7788   16.6617 N   0  0  0  0  0  0  0  0  0  0  0  0
    9.7919   -0.0696   15.8589 C   0  0  0  0  0  0  0  0  0  0  0  0
   10.7365   -0.5295   14.9366 C   0  0  0  0  0  0  0  0  0  0  0  0
   11.5792    0.4015   14.3269 C   0  0  0  0  0  0  0  0  0  0  0  0
   11.4786    1.7575   14.6408 C   0  0  0  0  0  0  0  0  0  0  0  0
   10.5284    2.2308   15.5577 C   0  0  0  0  0  0  0  0  0  0  0  0
    9.6973    1.2778   16.1469 C   0  0  0  0  0  0  0  0  0  0  0  0
    8.7006    1.3564   17.0938 N   0  0  0  0  0  0  0  0  0  0  0  0
    3.2563   -1.2809   25.9041 C   0  0  0  0  0  0  0  0  0  0  0  0
    2.8942   -1.5729   27.2784 C   0  0  0  0  0  0  0  0  0  0  0  0
    1.7449    2.7505   28.6990 H   0  0  0  0  0  0  0  0  0  0  0  0
    1.7605    1.4903   27.4592 H   0  0  0  0  0  0  0  0  0  0  0  0
    0.2188    2.2878   27.9176 H   0  0  0  0  0  0  0  0  0  0  0  0
   -0.0653   -0.6848   29.8976 H   0  0  0  0  0  0  0  0  0  0  0  0
   -0.9088    0.3687   28.7770 H   0  0  0  0  0  0  0  0  0  0  0  0
    0.5835   -0.3603   26.9391 H   0  0  0  0  0  0  0  0  0  0  0  0
   -0.3084   -1.7350   27.6492 H   0  0  0  0  0  0  0  0  0  0  0  0
    1.1091   -2.8344   29.7327 H   0  0  0  0  0  0  0  0  0  0  0  0
    3.7766   -2.8090   30.2478 H   0  0  0  0  0  0  0  0  0  0  0  0
    5.9966   -1.6882   28.6242 H   0  0  0  0  0  0  0  0  0  0  0  0
    6.5537   -1.3174   26.3856 H   0  0  0  0  0  0  0  0  0  0  0  0
    4.4481   -0.6299   22.8384 H   0  0  0  0  0  0  0  0  0  0  0  0
    5.9647   -2.9939   21.7154 H   0  0  0  0  0  0  0  0  0  0  0  0
    5.3146   -2.7415   20.6547 H   0  0  0  0  0  0  0  0  0  0  0  0
    6.7063   -0.0955   20.8663 H   0  0  0  0  0  0  0  0  0  0  0  0
    8.0256   -0.7959   20.9595 H   0  0  0  0  0  0  0  0  0  0  0  0
    7.4132    0.5888   19.3775 H   0  0  0  0  0  0  0  0  0  0  0  0
    8.2883   -0.9554   19.1545 H   0  0  0  0  0  0  0  0  0  0  0  0
   10.8109   -1.5872   14.7083 H   0  0  0  0  0  0  0  0  0  0  0  0
   12.3172    0.0596   13.6061 H   0  0  0  0  0  0  0  0  0  0  0  0
   12.1532    2.4652   14.1628 H   0  0  0  0  0  0  0  0  0  0  0  0
   10.4670    3.2839   15.8094 H   0  0  0  0  0  0  0  0  0  0  0  0
    8.3700    2.2113   17.5078 H   0  0  0  0  0  0  0  0  0  0  0  0
    2.5416   -1.3440   25.1249 H   0  0  0  0  0  0  0  0  0  0  0  0
  1  2  1  0
  2  3  1  0
  3  4  1  0
  4  5  1  0
  5  6  1  0
  6  7  2  0
  7  8  1  0
  8  9  2  0
  9 10  1  0
 10 11  2  0
 11 12  1  0
 12 13  2  0
 12 14  1  0
 14 15  1  0
 15 16  1  0
 16 17  1  0
 17 18  1  0
 18 19  2  0
 19 20  1  0
 20 21  2  0
 21 22  1  0
 22 23  2  0
 23 24  1  0
 24 25  2  0
 25 26  1  0
 11 27  1  0
 27 28  2  0
 28  5  1  0
 28  8  1  0
 26 18  1  0
 25 20  1  0
  1 29  1  0
  1 30  1  0
  1 31  1  0
  3 32  1  0
  3 33  1  0
  4 34  1  0
  4 35  1  0
  6 36  1  0
  7 37  1  0
  9 38  1  0
 10 39  1  0
 14 40  1  0
 15 41  1  0
 15 42  1  0
 16 43  1  0
 16 44  1  0
 17 45  1  0
 17 46  1  0
 21 47  1  0
 22 48  1  0
 23 49  1  0
 24 50  1  0
 26 51  1  0
 27 52  1  0
M  END
>  <Energy>  (672) 
338.90046432626406

>  <compound_id>  (672) 
39999

>  <target_id>  (672) 
1

>  <reference_id>  (672) 
103

>  <inspiration_ids>  (672) 
[40, 103]

>  <energy_score>  (672) 
276.15222942955864

>  <distance_score>  (672) 
5.973632333878867

>  <path>  (672) 
/opt/xchem-fragalysis-2/maxwin/BulkDock/SCRATCH/511017/C39999-P103/C39999-P103.minimised.mol

>  <scratch_subdir>  (672) 
/opt/xchem-fragalysis-2/maxwin/BulkDock/SCRATCH/511017/C39999-P103

>  <fragmenstein_runtime>  (672) 
20.549240112304688

>  <fragmenstein_outcome>  (672) 
too moved

>  <fragmenstein_mode>  (672) 
expansion

>  <fragmenstein_error>  (672) 


$$$$
C40000-P40
     RDKit          3D

 45 48  0  0  0  0  0  0  0  0999 V2000
    1.5444   -1.5130   28.9773 C   0  0  0  0  0  0  0  0  0  0  0  0
    2.3256   -2.6664   28.5844 N   0  0  0  0  0  0  0  0  0  0  0  0
    2.1820   -3.9291   29.1046 C   0  0  0  0  0  0  0  0  0  0  0  0
    3.0616   -4.7586   28.4486 C   0  0  0  0  0  0  0  0  0  0  0  0
    3.7394   -3.9756   27.4759 C   0  0  0  0  0  0  0  0  0  0  0  0
    4.6951   -4.2563   26.4911 C   0  0  0  0  0  0  0  0  0  0  0  0
    5.0801   -3.2441   25.5852 C   0  0  0  0  0  0  0  0  0  0  0  0
    4.5884   -1.9418   25.6430 C   0  0  0  0  0  0  0  0  0  0  0  0
    4.6464   -0.8941   24.4946 C   0  0  0  0  0  0  0  0  0  0  0  0
    4.3505    0.2172   24.8675 O   0  0  0  0  0  0  0  0  0  0  0  0
    4.9507   -1.4172   23.1084 N   0  0  0  0  0  0  0  0  0  0  0  0
    5.0969   -0.5788   21.5622 C   0  0  0  0  0  0  0  0  0  0  0  0
    6.6605   -0.1054   20.1834 C   0  0  0  0  0  0  0  0  0  0  0  0
    6.8037    0.3783   18.4514 C   0  0  0  0  0  0  0  0  0  0  0  0
    8.1724    0.7417   17.8207 C   0  0  0  0  0  0  0  0  0  0  0  0
    8.9351   -0.0930   17.1315 N   0  0  0  0  0  0  0  0  0  0  0  0
    9.6127    0.6396   16.2038 C   0  0  0  0  0  0  0  0  0  0  0  0
   10.4185    0.2060   15.1434 C   0  0  0  0  0  0  0  0  0  0  0  0
   11.0570    1.1683   14.3616 C   0  0  0  0  0  0  0  0  0  0  0  0
   10.8876    2.5258   14.6375 C   0  0  0  0  0  0  0  0  0  0  0  0
   10.0665    2.9689   15.6872 C   0  0  0  0  0  0  0  0  0  0  0  0
    9.4396    1.9874   16.4557 C   0  0  0  0  0  0  0  0  0  0  0  0
    8.5797    2.0345   17.5364 N   0  0  0  0  0  0  0  0  0  0  0  0
    3.7444   -1.6296   26.7410 C   0  0  0  0  0  0  0  0  0  0  0  0
    3.2848   -2.6635   27.5927 C   0  0  0  0  0  0  0  0  0  0  0  0
    0.9685   -1.1747   28.1122 H   0  0  0  0  0  0  0  0  0  0  0  0
    0.8664   -1.7908   29.7883 H   0  0  0  0  0  0  0  0  0  0  0  0
    2.2289   -0.7324   29.3185 H   0  0  0  0  0  0  0  0  0  0  0  0
    1.4738   -4.1255   29.8985 H   0  0  0  0  0  0  0  0  0  0  0  0
    3.1971   -5.8148   28.6313 H   0  0  0  0  0  0  0  0  0  0  0  0
    5.1003   -5.2579   26.3748 H   0  0  0  0  0  0  0  0  0  0  0  0
    5.7567   -3.5445   24.8022 H   0  0  0  0  0  0  0  0  0  0  0  0
    5.2358   -2.3511   23.1719 H   0  0  0  0  0  0  0  0  0  0  0  0
    4.4415    0.3099   21.3472 H   0  0  0  0  0  0  0  0  0  0  0  0
    5.0294    0.1530   22.4663 H   0  0  0  0  0  0  0  0  0  0  0  0
    7.0379    0.9295   20.2550 H   0  0  0  0  0  0  0  0  0  0  0  0
    7.3879   -0.8393   20.2763 H   0  0  0  0  0  0  0  0  0  0  0  0
    6.3196    1.3260   18.2834 H   0  0  0  0  0  0  0  0  0  0  0  0
    6.2729   -0.2959   17.7708 H   0  0  0  0  0  0  0  0  0  0  0  0
   10.5314   -0.8518   14.9302 H   0  0  0  0  0  0  0  0  0  0  0  0
   11.6795    0.8509   13.5290 H   0  0  0  0  0  0  0  0  0  0  0  0
   11.3955    3.2616   14.0173 H   0  0  0  0  0  0  0  0  0  0  0  0
    9.9431    4.0258   15.8965 H   0  0  0  0  0  0  0  0  0  0  0  0
    8.1814    2.8786   17.9207 H   0  0  0  0  0  0  0  0  0  0  0  0
    3.3166   -0.6319   26.8244 H   0  0  0  0  0  0  0  0  0  0  0  0
  1  2  1  0
  2  3  1  0
  3  4  2  0
  4  5  1  0
  5  6  2  0
  6  7  1  0
  7  8  2  0
  8  9  1  0
  9 10  2  0
  9 11  1  0
 11 12  1  0
 12 13  1  0
 13 14  1  0
 14 15  1  0
 15 16  2  0
 16 17  1  0
 17 18  2  0
 18 19  1  0
 19 20  2  0
 20 21  1  0
 21 22  2  0
 22 23  1  0
  8 24  1  0
 24 25  2  0
 25  2  1  0
 25  5  1  0
 23 15  1  0
 22 17  1  0
  1 26  1  0
  1 27  1  0
  1 28  1  0
  3 29  1  0
  4 30  1  0
  6 31  1  0
  7 32  1  0
 11 33  1  0
 12 34  1  0
 12 35  1  0
 13 36  1  0
 13 37  1  0
 14 38  1  0
 14 39  1  0
 18 40  1  0
 19 41  1  0
 20 42  1  0
 21 43  1  0
 23 44  1  0
 24 45  1  0
M  END
>  <Energy>  (673) 
300.62743862728405

>  <compound_id>  (673) 
40000

>  <target_id>  (673) 
1

>  <reference_id>  (673) 
40

>  <inspiration_ids>  (673) 
[40, 103]

>  <energy_score>  (673) 
260.34857242703066

>  <distance_score>  (673) 
5.781317722556397

>  <path>  (673) 
/opt/xchem-fragalysis-2/maxwin/BulkDock/SCRATCH/511017/C40000-P40/C40000-P40.minimised.mol

>  <scratch_subdir>  (673) 
/opt/xchem-fragalysis-2/maxwin/BulkDock/SCRATCH/511017/C40000-P40

>  <fragmenstein_runtime>  (673) 
11.408222198486328

>  <fragmenstein_outcome>  (673) 
too moved

>  <fragmenstein_mode>  (673) 
expansion

>  <fragmenstein_error>  (673) 


$$$$
C40000-P103
     RDKit          3D

 45 48  0  0  0  0  0  0  0  0999 V2000
    4.7882   -0.6361   27.1187 C   0  0  0  0  0  0  0  0  0  0  0  0
    5.4033   -1.5771   28.0287 N   0  0  0  0  0  0  0  0  0  0  0  0
    4.6994   -2.3511   28.9182 C   0  0  0  0  0  0  0  0  0  0  0  0
    5.5855   -3.2168   29.5141 C   0  0  0  0  0  0  0  0  0  0  0  0
    6.8702   -2.9629   28.9590 C   0  0  0  0  0  0  0  0  0  0  0  0
    8.1330   -3.5516   29.1209 C   0  0  0  0  0  0  0  0  0  0  0  0
    9.2336   -3.0475   28.3939 C   0  0  0  0  0  0  0  0  0  0  0  0
    9.1496   -1.9423   27.5203 C   0  0  0  0  0  0  0  0  0  0  0  0
   10.4632   -1.5158   26.7793 C   0  0  0  0  0  0  0  0  0  0  0  0
   11.3328   -2.3387   26.8445 O   0  0  0  0  0  0  0  0  0  0  0  0
   10.4600   -0.1931   26.1933 N   0  0  0  0  0  0  0  0  0  0  0  0
   11.5486    0.5988   25.5792 C   0  0  0  0  0  0  0  0  0  0  0  0
   11.9566    0.2695   24.1137 C   0  0  0  0  0  0  0  0  0  0  0  0
   13.1370    1.1363   23.5836 C   0  0  0  0  0  0  0  0  0  0  0  0
   13.7139    0.7637   22.2343 C   0  0  0  0  0  0  0  0  0  0  0  0
   13.8694    1.5542   21.1843 N   0  0  0  0  0  0  0  0  0  0  0  0
   14.3578    0.7533   20.1680 C   0  0  0  0  0  0  0  0  0  0  0  0
   14.5627    1.0365   18.8062 C   0  0  0  0  0  0  0  0  0  0  0  0
   14.9572   -0.0020   17.9489 C   0  0  0  0  0  0  0  0  0  0  0  0
   15.1701   -1.2920   18.4404 C   0  0  0  0  0  0  0  0  0  0  0  0
   14.9935   -1.5876   19.7980 C   0  0  0  0  0  0  0  0  0  0  0  0
   14.5761   -0.5383   20.6246 C   0  0  0  0  0  0  0  0  0  0  0  0
   14.2276   -0.4862   21.9547 N   0  0  0  0  0  0  0  0  0  0  0  0
    7.8800   -1.3464   27.3848 C   0  0  0  0  0  0  0  0  0  0  0  0
    6.7537   -1.8842   28.0784 C   0  0  0  0  0  0  0  0  0  0  0  0
    5.3890    0.2759   27.0902 H   0  0  0  0  0  0  0  0  0  0  0  0
    3.7823   -0.3940   27.4720 H   0  0  0  0  0  0  0  0  0  0  0  0
    4.7337   -1.1026   26.1323 H   0  0  0  0  0  0  0  0  0  0  0  0
    3.6288   -2.2409   29.0306 H   0  0  0  0  0  0  0  0  0  0  0  0
    5.3335   -3.9689   30.2482 H   0  0  0  0  0  0  0  0  0  0  0  0
    8.2706   -4.3952   29.7895 H   0  0  0  0  0  0  0  0  0  0  0  0
   10.1951   -3.5437   28.5283 H   0  0  0  0  0  0  0  0  0  0  0  0
    9.5792    0.2539   26.3956 H   0  0  0  0  0  0  0  0  0  0  0  0
   12.4231    0.4627   26.2252 H   0  0  0  0  0  0  0  0  0  0  0  0
   11.2395    1.6475   25.6435 H   0  0  0  0  0  0  0  0  0  0  0  0
   11.0846    0.4067   23.4649 H   0  0  0  0  0  0  0  0  0  0  0  0
   12.2349   -0.7893   24.0871 H   0  0  0  0  0  0  0  0  0  0  0  0
   13.9560    1.0990   24.3131 H   0  0  0  0  0  0  0  0  0  0  0  0
   12.8067    2.1816   23.5403 H   0  0  0  0  0  0  0  0  0  0  0  0
   14.3779    2.0371   18.4305 H   0  0  0  0  0  0  0  0  0  0  0  0
   15.1015    0.2053   16.8912 H   0  0  0  0  0  0  0  0  0  0  0  0
   15.4800   -2.0805   17.7579 H   0  0  0  0  0  0  0  0  0  0  0  0
   15.1416   -2.5910   20.1818 H   0  0  0  0  0  0  0  0  0  0  0  0
   14.1507   -1.2854   22.5665 H   0  0  0  0  0  0  0  0  0  0  0  0
    7.7243   -0.5019   26.7366 H   0  0  0  0  0  0  0  0  0  0  0  0
  1  2  1  0
  2  3  1  0
  3  4  2  0
  4  5  1  0
  5  6  2  0
  6  7  1  0
  7  8  2  0
  8  9  1  0
  9 10  2  0
  9 11  1  0
 11 12  1  0
 12 13  1  0
 13 14  1  0
 14 15  1  0
 15 16  2  0
 16 17  1  0
 17 18  2  0
 18 19  1  0
 19 20  2  0
 20 21  1  0
 21 22  2  0
 22 23  1  0
  8 24  1  0
 24 25  2  0
 25  2  1  0
 25  5  1  0
 23 15  1  0
 22 17  1  0
  1 26  1  0
  1 27  1  0
  1 28  1  0
  3 29  1  0
  4 30  1  0
  6 31  1  0
  7 32  1  0
 11 33  1  0
 12 34  1  0
 12 35  1  0
 13 36  1  0
 13 37  1  0
 14 38  1  0
 14 39  1  0
 18 40  1  0
 19 41  1  0
 20 42  1  0
 21 43  1  0
 23 44  1  0
 24 45  1  0
M  END
>  <Energy>  (674) 
37.044926511511903

>  <compound_id>  (674) 
40000

>  <target_id>  (674) 
1

>  <reference_id>  (674) 
103

>  <inspiration_ids>  (674) 
[40, 103]

>  <energy_score>  (674) 
-3.23393968874268

>  <distance_score>  (674) 
6.74981402392206

>  <path>  (674) 
/opt/xchem-fragalysis-2/maxwin/BulkDock/SCRATCH/511017/C40000-P103/C40000-P103.minimised.mol

>  <scratch_subdir>  (674) 
/opt/xchem-fragalysis-2/maxwin/BulkDock/SCRATCH/511017/C40000-P103

>  <fragmenstein_runtime>  (674) 
12.297933578491211

>  <fragmenstein_outcome>  (674) 
too moved

>  <fragmenstein_mode>  (674) 
expansion

>  <fragmenstein_error>  (674) 


$$$$
C40001-P40
     RDKit          3D

 38 41  0  0  0  0  0  0  0  0999 V2000
    6.7884    0.5627   27.3779 O   0  0  0  0  0  0  0  0  0  0  0  0
    7.3522   -0.2712   26.7721 C   0  0  0  0  0  0  0  0  0  0  0  0
    8.7191   -0.2456   26.1218 N   0  0  0  0  0  0  0  0  0  0  0  0
    9.7619    0.7760   26.1415 C   0  0  0  0  0  0  0  0  0  0  0  0
   10.5310    1.0680   24.8677 C   0  0  0  0  0  0  0  0  0  0  0  0
   10.2185    1.9456   23.9254 N   0  0  0  0  0  0  0  0  0  0  0  0
   11.3548    2.1444   23.1704 C   0  0  0  0  0  0  0  0  0  0  0  0
   11.5924    3.0234   22.1008 C   0  0  0  0  0  0  0  0  0  0  0  0
   12.8715    3.0529   21.5212 C   0  0  0  0  0  0  0  0  0  0  0  0
   13.8800    2.1932   21.9675 C   0  0  0  0  0  0  0  0  0  0  0  0
   13.6571    1.3072   23.0295 C   0  0  0  0  0  0  0  0  0  0  0  0
   12.3876    1.3349   23.6203 C   0  0  0  0  0  0  0  0  0  0  0  0
   11.8284    0.6318   24.6660 N   0  0  0  0  0  0  0  0  0  0  0  0
    6.9488   -1.7033   26.4752 N   0  0  0  0  0  0  0  0  0  0  0  0
    5.8335   -2.4624   26.9183 C   0  0  0  0  0  0  0  0  0  0  0  0
    5.9638   -3.8677   26.8738 C   0  0  0  0  0  0  0  0  0  0  0  0
    4.9546   -4.7387   27.2974 C   0  0  0  0  0  0  0  0  0  0  0  0
    3.7427   -4.2499   27.7679 C   0  0  0  0  0  0  0  0  0  0  0  0
    3.5800   -2.8635   27.7740 C   0  0  0  0  0  0  0  0  0  0  0  0
    2.4700   -2.1304   28.1320 N   0  0  0  0  0  0  0  0  0  0  0  0
    2.7029   -0.8031   27.9380 C   0  0  0  0  0  0  0  0  0  0  0  0
    3.9898   -0.6701   27.4719 C   0  0  0  0  0  0  0  0  0  0  0  0
    4.5829   -1.9613   27.3695 C   0  0  0  0  0  0  0  0  0  0  0  0
    8.8611   -1.0967   25.6150 H   0  0  0  0  0  0  0  0  0  0  0  0
   10.4646    0.4701   26.9250 H   0  0  0  0  0  0  0  0  0  0  0  0
    9.2934    1.7047   26.4868 H   0  0  0  0  0  0  0  0  0  0  0  0
   10.8020    3.6741   21.7441 H   0  0  0  0  0  0  0  0  0  0  0  0
   13.0643    3.7395   20.7001 H   0  0  0  0  0  0  0  0  0  0  0  0
   14.8565    2.2185   21.4892 H   0  0  0  0  0  0  0  0  0  0  0  0
   14.4359    0.6407   23.3820 H   0  0  0  0  0  0  0  0  0  0  0  0
   12.3117   -0.0523   25.2266 H   0  0  0  0  0  0  0  0  0  0  0  0
    7.7009   -2.1702   25.9994 H   0  0  0  0  0  0  0  0  0  0  0  0
    6.8902   -4.3035   26.5030 H   0  0  0  0  0  0  0  0  0  0  0  0
    5.1252   -5.8112   27.2437 H   0  0  0  0  0  0  0  0  0  0  0  0
    2.9536   -4.9181   28.0899 H   0  0  0  0  0  0  0  0  0  0  0  0
    1.5909   -2.5184   28.4426 H   0  0  0  0  0  0  0  0  0  0  0  0
    1.9370   -0.0637   28.1292 H   0  0  0  0  0  0  0  0  0  0  0  0
    4.4473    0.2728   27.2046 H   0  0  0  0  0  0  0  0  0  0  0  0
  1  2  2  0
  2  3  1  0
  3  4  1  0
  4  5  1  0
  5  6  2  0
  6  7  1  0
  7  8  2  0
  8  9  1  0
  9 10  2  0
 10 11  1  0
 11 12  2  0
 12 13  1  0
  2 14  1  0
 14 15  1  0
 15 16  2  0
 16 17  1  0
 17 18  2  0
 18 19  1  0
 19 20  1  0
 20 21  1  0
 21 22  2  0
 22 23  1  0
 13  5  1  0
 23 15  1  0
 12  7  1  0
 23 19  2  0
  3 24  1  0
  4 25  1  0
  4 26  1  0
  8 27  1  0
  9 28  1  0
 10 29  1  0
 11 30  1  0
 13 31  1  0
 14 32  1  0
 16 33  1  0
 17 34  1  0
 18 35  1  0
 20 36  1  0
 21 37  1  0
 22 38  1  0
M  END
>  <Energy>  (675) 
-7.6054714694276608

>  <compound_id>  (675) 
40001

>  <target_id>  (675) 
1

>  <reference_id>  (675) 
40

>  <inspiration_ids>  (675) 
[40, 103]

>  <energy_score>  (675) 
-14.65802674590708

>  <distance_score>  (675) 
7.585327618725457

>  <path>  (675) 
/opt/xchem-fragalysis-2/maxwin/BulkDock/SCRATCH/511017/C40001-P40/C40001-P40.minimised.mol

>  <scratch_subdir>  (675) 
/opt/xchem-fragalysis-2/maxwin/BulkDock/SCRATCH/511017/C40001-P40

>  <fragmenstein_runtime>  (675) 
8.52344012260437

>  <fragmenstein_outcome>  (675) 
too moved

>  <fragmenstein_mode>  (675) 
expansion

>  <fragmenstein_error>  (675) 


$$$$
C40001-P103
     RDKit          3D

 38 41  0  0  0  0  0  0  0  0999 V2000
    7.6841   -1.0090   20.4817 O   0  0  0  0  0  0  0  0  0  0  0  0
    6.9717   -0.0832   20.4074 C   0  0  0  0  0  0  0  0  0  0  0  0
    7.3473    1.2315   19.1096 N   0  0  0  0  0  0  0  0  0  0  0  0
    8.5810    1.3156   17.7725 C   0  0  0  0  0  0  0  0  0  0  0  0
    9.3322    0.4737   16.7878 C   0  0  0  0  0  0  0  0  0  0  0  0
    9.2596   -0.7826   16.4094 N   0  0  0  0  0  0  0  0  0  0  0  0
   10.3787   -1.0126   15.6095 C   0  0  0  0  0  0  0  0  0  0  0  0
   10.8667   -2.1938   15.0359 C   0  0  0  0  0  0  0  0  0  0  0  0
   12.0821   -2.1611   14.3435 C   0  0  0  0  0  0  0  0  0  0  0  0
   12.8187   -0.9841   14.2387 C   0  0  0  0  0  0  0  0  0  0  0  0
   12.3498    0.2066   14.7977 C   0  0  0  0  0  0  0  0  0  0  0  0
   11.1237    0.1452   15.4632 C   0  0  0  0  0  0  0  0  0  0  0  0
   10.3773    1.0939   16.1011 N   0  0  0  0  0  0  0  0  0  0  0  0
    5.4750    0.3306   21.6016 N   0  0  0  0  0  0  0  0  0  0  0  0
    4.9137   -0.5188   23.2075 C   0  0  0  0  0  0  0  0  0  0  0  0
    4.9666   -1.8303   23.4907 C   0  0  0  0  0  0  0  0  0  0  0  0
    4.4160   -2.4526   24.6700 C   0  0  0  0  0  0  0  0  0  0  0  0
    4.0506   -1.9062   25.8841 C   0  0  0  0  0  0  0  0  0  0  0  0
    3.9798   -0.5659   25.8399 C   0  0  0  0  0  0  0  0  0  0  0  0
    3.5275    0.2661   26.8355 N   0  0  0  0  0  0  0  0  0  0  0  0
    3.0371    1.4073   26.2858 C   0  0  0  0  0  0  0  0  0  0  0  0
    3.2919    1.3084   24.9391 C   0  0  0  0  0  0  0  0  0  0  0  0
    4.2147    0.1272   24.6496 C   0  0  0  0  0  0  0  0  0  0  0  0
    6.7577    1.9519   19.2212 H   0  0  0  0  0  0  0  0  0  0  0  0
    8.9616    2.3358   17.7637 H   0  0  0  0  0  0  0  0  0  0  0  0
    7.9154    1.6655   16.9703 H   0  0  0  0  0  0  0  0  0  0  0  0
   10.3053   -3.1178   15.0847 H   0  0  0  0  0  0  0  0  0  0  0  0
   12.4299   -3.0645   13.8561 H   0  0  0  0  0  0  0  0  0  0  0  0
   13.7586   -0.9893   13.6911 H   0  0  0  0  0  0  0  0  0  0  0  0
   12.9110    1.1296   14.7049 H   0  0  0  0  0  0  0  0  0  0  0  0
   10.6546    2.0592   16.2149 H   0  0  0  0  0  0  0  0  0  0  0  0
    4.9970    1.0685   21.3069 H   0  0  0  0  0  0  0  0  0  0  0  0
    5.3543   -2.3034   22.6157 H   0  0  0  0  0  0  0  0  0  0  0  0
    4.2796   -3.5148   24.7086 H   0  0  0  0  0  0  0  0  0  0  0  0
    3.7364   -2.5058   26.7247 H   0  0  0  0  0  0  0  0  0  0  0  0
    3.3565   -0.0387   27.7824 H   0  0  0  0  0  0  0  0  0  0  0  0
    2.4914    2.1351   26.8692 H   0  0  0  0  0  0  0  0  0  0  0  0
    2.9700    2.0129   24.1804 H   0  0  0  0  0  0  0  0  0  0  0  0
  1  2  2  0
  2  3  1  0
  3  4  1  0
  4  5  1  0
  5  6  2  0
  6  7  1  0
  7  8  2  0
  8  9  1  0
  9 10  2  0
 10 11  1  0
 11 12  2  0
 12 13  1  0
  2 14  1  0
 14 15  1  0
 15 16  2  0
 16 17  1  0
 17 18  2  0
 18 19  1  0
 19 20  1  0
 20 21  1  0
 21 22  2  0
 22 23  1  0
 13  5  1  0
 23 15  1  0
 12  7  1  0
 23 19  2  0
  3 24  1  0
  4 25  1  0
  4 26  1  0
  8 27  1  0
  9 28  1  0
 10 29  1  0
 11 30  1  0
 13 31  1  0
 14 32  1  0
 16 33  1  0
 17 34  1  0
 18 35  1  0
 20 36  1  0
 21 37  1  0
 22 38  1  0
M  END
>  <Energy>  (676) 
378.76674640829884

>  <compound_id>  (676) 
40001

>  <target_id>  (676) 
1

>  <reference_id>  (676) 
103

>  <inspiration_ids>  (676) 
[40, 103]

>  <energy_score>  (676) 
371.71419113181975

>  <distance_score>  (676) 
6.447288431869332

>  <path>  (676) 
/opt/xchem-fragalysis-2/maxwin/BulkDock/SCRATCH/511017/C40001-P103/C40001-P103.minimised.mol

>  <scratch_subdir>  (676) 
/opt/xchem-fragalysis-2/maxwin/BulkDock/SCRATCH/511017/C40001-P103

>  <fragmenstein_runtime>  (676) 
10.811861276626587

>  <fragmenstein_outcome>  (676) 
too moved

>  <fragmenstein_mode>  (676) 
expansion

>  <fragmenstein_error>  (676) 


$$$$
C40002-P40
     RDKit          3D

 42 45  0  0  0  0  0  0  0  0999 V2000
   12.0742    0.9640   24.4288 O   0  0  0  0  0  0  0  0  0  0  0  0
   11.1544    1.7370   24.4004 C   0  0  0  0  0  0  0  0  0  0  0  0
   11.2886    2.9809   23.4263 C   0  0  0  0  0  0  0  0  0  0  0  0
   11.0567    2.7121   21.8954 C   0  0  0  0  0  0  0  0  0  0  0  0
   12.2457    3.0264   20.9086 C   0  0  0  0  0  0  0  0  0  0  0  0
   12.3335    2.1571   19.5764 C   0  0  0  0  0  0  0  0  0  0  0  0
   11.0402    1.6617   18.1376 N   0  0  0  0  0  0  0  0  0  0  0  0
   12.1030    1.1218   16.4634 C   0  0  0  0  0  0  0  0  0  0  0  0
   11.7563    0.6833   15.1887 C   0  0  0  0  0  0  0  0  0  0  0  0
   12.7496   -0.0557   14.5027 C   0  0  0  0  0  0  0  0  0  0  0  0
   14.0649   -0.4094   14.9826 C   0  0  0  0  0  0  0  0  0  0  0  0
   14.6354   -0.1206   16.2467 C   0  0  0  0  0  0  0  0  0  0  0  0
   13.7782    0.5147   17.1381 C   0  0  0  0  0  0  0  0  0  0  0  0
   14.0251    1.3611   18.9401 N   0  0  0  0  0  0  0  0  0  0  0  0
    9.8536    1.7028   25.0822 N   0  0  0  0  0  0  0  0  0  0  0  0
    9.2512    0.6970   25.9080 C   0  0  0  0  0  0  0  0  0  0  0  0
    9.8357   -0.5465   26.1330 C   0  0  0  0  0  0  0  0  0  0  0  0
    9.1160   -1.6225   26.7002 C   0  0  0  0  0  0  0  0  0  0  0  0
    7.7658   -1.4334   27.0163 C   0  0  0  0  0  0  0  0  0  0  0  0
    6.8087   -2.3329   27.4327 N   0  0  0  0  0  0  0  0  0  0  0  0
    5.6054   -1.7000   27.6011 C   0  0  0  0  0  0  0  0  0  0  0  0
    5.7874   -0.3727   27.2773 C   0  0  0  0  0  0  0  0  0  0  0  0
    7.1488   -0.1952   26.8832 C   0  0  0  0  0  0  0  0  0  0  0  0
    7.9207    0.8875   26.3719 C   0  0  0  0  0  0  0  0  0  0  0  0
   12.2931    3.3918   23.5845 H   0  0  0  0  0  0  0  0  0  0  0  0
   10.5946    3.7618   23.7574 H   0  0  0  0  0  0  0  0  0  0  0  0
   10.2265    3.3499   21.5684 H   0  0  0  0  0  0  0  0  0  0  0  0
   10.6843    1.6927   21.8015 H   0  0  0  0  0  0  0  0  0  0  0  0
   13.1952    2.8561   21.4311 H   0  0  0  0  0  0  0  0  0  0  0  0
   12.2142    4.0829   20.6195 H   0  0  0  0  0  0  0  0  0  0  0  0
   10.7661    0.8303   14.7743 H   0  0  0  0  0  0  0  0  0  0  0  0
   12.4835   -0.4163   13.5040 H   0  0  0  0  0  0  0  0  0  0  0  0
   14.6934   -0.9699   14.2835 H   0  0  0  0  0  0  0  0  0  0  0  0
   15.6436   -0.4108   16.5108 H   0  0  0  0  0  0  0  0  0  0  0  0
   14.7934    2.0084   18.9377 H   0  0  0  0  0  0  0  0  0  0  0  0
    9.3581    2.5611   24.8924 H   0  0  0  0  0  0  0  0  0  0  0  0
   10.8518   -0.7398   25.7908 H   0  0  0  0  0  0  0  0  0  0  0  0
    9.5850   -2.5978   26.7917 H   0  0  0  0  0  0  0  0  0  0  0  0
    6.9761   -3.3233   27.5401 H   0  0  0  0  0  0  0  0  0  0  0  0
    4.7275   -2.2458   27.9162 H   0  0  0  0  0  0  0  0  0  0  0  0
    5.0172    0.3873   27.2824 H   0  0  0  0  0  0  0  0  0  0  0  0
    7.4256    1.8435   26.2296 H   0  0  0  0  0  0  0  0  0  0  0  0
  1  2  2  0
  2  3  1  0
  3  4  1  0
  4  5  1  0
  5  6  1  0
  6  7  2  0
  7  8  1  0
  8  9  2  0
  9 10  1  0
 10 11  2  0
 11 12  1  0
 12 13  2  0
 13 14  1  0
  2 15  1  0
 15 16  1  0
 16 17  2  0
 17 18  1  0
 18 19  2  0
 19 20  1  0
 20 21  1  0
 21 22  2  0
 22 23  1  0
 23 24  2  0
 14  6  1  0
 24 16  1  0
 13  8  1  0
 23 19  1  0
  3 25  1  0
  3 26  1  0
  4 27  1  0
  4 28  1  0
  5 29  1  0
  5 30  1  0
  9 31  1  0
 10 32  1  0
 11 33  1  0
 12 34  1  0
 14 35  1  0
 15 36  1  0
 17 37  1  0
 18 38  1  0
 20 39  1  0
 21 40  1  0
 22 41  1  0
 24 42  1  0
M  END
>  <Energy>  (677) 
659.30786755698523

>  <compound_id>  (677) 
40002

>  <target_id>  (677) 
1

>  <reference_id>  (677) 
40

>  <inspiration_ids>  (677) 
[40, 103]

>  <energy_score>  (677) 
610.0005573644701

>  <distance_score>  (677) 
8.375177780408944

>  <path>  (677) 
/opt/xchem-fragalysis-2/maxwin/BulkDock/SCRATCH/511017/C40002-P40/C40002-P40.minimised.mol

>  <scratch_subdir>  (677) 
/opt/xchem-fragalysis-2/maxwin/BulkDock/SCRATCH/511017/C40002-P40

>  <fragmenstein_runtime>  (677) 
10.957379817962646

>  <fragmenstein_outcome>  (677) 
too moved

>  <fragmenstein_mode>  (677) 
expansion

>  <fragmenstein_error>  (677) 


$$$$
C40002-P103
     RDKit          3D

 42 45  0  0  0  0  0  0  0  0999 V2000
   12.1556   -1.9889   25.7894 O   0  0  0  0  0  0  0  0  0  0  0  0
   11.4811   -0.9982   25.7225 C   0  0  0  0  0  0  0  0  0  0  0  0
   11.9152    0.1881   24.7880 C   0  0  0  0  0  0  0  0  0  0  0  0
   13.1972   -0.0559   23.9272 C   0  0  0  0  0  0  0  0  0  0  0  0
   13.3689    0.9239   22.7347 C   0  0  0  0  0  0  0  0  0  0  0  0
   14.0766    0.4206   21.4908 C   0  0  0  0  0  0  0  0  0  0  0  0
   14.2471    1.1228   20.3803 N   0  0  0  0  0  0  0  0  0  0  0  0
   14.5786    0.2158   19.3982 C   0  0  0  0  0  0  0  0  0  0  0  0
   14.6937    0.3861   18.0088 C   0  0  0  0  0  0  0  0  0  0  0  0
   14.9349   -0.7395   17.2078 C   0  0  0  0  0  0  0  0  0  0  0  0
   15.0817   -2.0053   17.7801 C   0  0  0  0  0  0  0  0  0  0  0  0
   14.9902   -2.1900   19.1655 C   0  0  0  0  0  0  0  0  0  0  0  0
   14.7276   -1.0537   19.9380 C   0  0  0  0  0  0  0  0  0  0  0  0
   14.4798   -0.8816   21.2813 N   0  0  0  0  0  0  0  0  0  0  0  0
   10.1891   -0.6756   26.3427 N   0  0  0  0  0  0  0  0  0  0  0  0
    9.3083   -1.4694   27.1285 C   0  0  0  0  0  0  0  0  0  0  0  0
    9.6250   -2.7473   27.5820 C   0  0  0  0  0  0  0  0  0  0  0  0
    8.7181   -3.5220   28.3388 C   0  0  0  0  0  0  0  0  0  0  0  0
    7.4523   -2.9902   28.6086 C   0  0  0  0  0  0  0  0  0  0  0  0
    6.3775   -3.5167   29.2880 N   0  0  0  0  0  0  0  0  0  0  0  0
    5.3172   -2.6518   29.2519 C   0  0  0  0  0  0  0  0  0  0  0  0
    5.7197   -1.5352   28.5543 C   0  0  0  0  0  0  0  0  0  0  0  0
    7.0754   -1.7293   28.1575 C   0  0  0  0  0  0  0  0  0  0  0  0
    8.0276   -0.9587   27.4403 C   0  0  0  0  0  0  0  0  0  0  0  0
   12.0658    1.0754   25.4133 H   0  0  0  0  0  0  0  0  0  0  0  0
   11.0728    0.3840   24.1136 H   0  0  0  0  0  0  0  0  0  0  0  0
   13.1966   -1.0983   23.6025 H   0  0  0  0  0  0  0  0  0  0  0  0
   14.0754    0.0294   24.5805 H   0  0  0  0  0  0  0  0  0  0  0  0
   12.3776    1.2643   22.4099 H   0  0  0  0  0  0  0  0  0  0  0  0
   13.8969    1.8171   23.0905 H   0  0  0  0  0  0  0  0  0  0  0  0
   14.5659    1.3705   17.5724 H   0  0  0  0  0  0  0  0  0  0  0  0
   15.0127   -0.6214   16.1295 H   0  0  0  0  0  0  0  0  0  0  0  0
   15.2722   -2.8629   17.1379 H   0  0  0  0  0  0  0  0  0  0  0  0
   15.0866   -3.1739   19.6114 H   0  0  0  0  0  0  0  0  0  0  0  0
   14.3767   -1.6338   21.9461 H   0  0  0  0  0  0  0  0  0  0  0  0
    9.8728    0.2204   26.0014 H   0  0  0  0  0  0  0  0  0  0  0  0
   10.5953   -3.1801   27.3467 H   0  0  0  0  0  0  0  0  0  0  0  0
    9.0022   -4.5132   28.6747 H   0  0  0  0  0  0  0  0  0  0  0  0
    6.3778   -4.4181   29.7388 H   0  0  0  0  0  0  0  0  0  0  0  0
    4.3724   -2.9006   29.7147 H   0  0  0  0  0  0  0  0  0  0  0  0
    5.1058   -0.6705   28.3408 H   0  0  0  0  0  0  0  0  0  0  0  0
    7.7339    0.0313   27.1099 H   0  0  0  0  0  0  0  0  0  0  0  0
  1  2  2  0
  2  3  1  0
  3  4  1  0
  4  5  1  0
  5  6  1  0
  6  7  2  0
  7  8  1  0
  8  9  2  0
  9 10  1  0
 10 11  2  0
 11 12  1  0
 12 13  2  0
 13 14  1  0
  2 15  1  0
 15 16  1  0
 16 17  2  0
 17 18  1  0
 18 19  2  0
 19 20  1  0
 20 21  1  0
 21 22  2  0
 22 23  1  0
 23 24  2  0
 14  6  1  0
 24 16  1  0
 13  8  1  0
 23 19  1  0
  3 25  1  0
  3 26  1  0
  4 27  1  0
  4 28  1  0
  5 29  1  0
  5 30  1  0
  9 31  1  0
 10 32  1  0
 11 33  1  0
 12 34  1  0
 14 35  1  0
 15 36  1  0
 17 37  1  0
 18 38  1  0
 20 39  1  0
 21 40  1  0
 22 41  1  0
 24 42  1  0
M  END
>  <Energy>  (678) 
21.258457988685954

>  <compound_id>  (678) 
40002

>  <target_id>  (678) 
1

>  <reference_id>  (678) 
103

>  <inspiration_ids>  (678) 
[40, 103]

>  <energy_score>  (678) 
-28.04885220383676

>  <distance_score>  (678) 
7.984014578844317

>  <path>  (678) 
/opt/xchem-fragalysis-2/maxwin/BulkDock/SCRATCH/511017/C40002-P103/C40002-P103.minimised.mol

>  <scratch_subdir>  (678) 
/opt/xchem-fragalysis-2/maxwin/BulkDock/SCRATCH/511017/C40002-P103

>  <fragmenstein_runtime>  (678) 
16.727638006210327

>  <fragmenstein_outcome>  (678) 
too moved

>  <fragmenstein_mode>  (678) 
expansion

>  <fragmenstein_error>  (678) 


$$$$
C40003-P40
     RDKit          3D

 54 57  0  0  0  0  0  0  0  0999 V2000
    1.6625   -1.0185   29.1625 C   0  0  0  0  0  0  0  0  0  0  0  0
    3.1253   -1.4656   29.2114 C   0  0  0  0  0  0  0  0  0  0  0  0
    3.9775   -0.3814   29.8728 C   0  0  0  0  0  0  0  0  0  0  0  0
    3.6098   -1.7982   27.7914 C   0  0  0  0  0  0  0  0  0  0  0  0
    4.9095   -2.4502   27.7476 N   0  0  0  0  0  0  0  0  0  0  0  0
    5.0986   -3.7934   27.9671 C   0  0  0  0  0  0  0  0  0  0  0  0
    6.4319   -4.0682   27.7609 C   0  0  0  0  0  0  0  0  0  0  0  0
    7.0811   -2.8518   27.3934 C   0  0  0  0  0  0  0  0  0  0  0  0
    8.4122   -2.5097   27.0133 C   0  0  0  0  0  0  0  0  0  0  0  0
    8.7469   -1.2008   26.6010 C   0  0  0  0  0  0  0  0  0  0  0  0
   10.0472   -0.9362   26.0788 N   0  0  0  0  0  0  0  0  0  0  0  0
   10.5985    0.2614   25.4279 C   0  0  0  0  0  0  0  0  0  0  0  0
   10.1138    1.3467   25.2440 O   0  0  0  0  0  0  0  0  0  0  0  0
   12.0750    0.0025   24.9564 C   0  0  0  0  0  0  0  0  0  0  0  0
   12.6143    1.0632   23.9345 C   0  0  0  0  0  0  0  0  0  0  0  0
   14.0617    0.8575   23.4281 C   0  0  0  0  0  0  0  0  0  0  0  0
   14.2947   -0.0121   22.2190 C   0  0  0  0  0  0  0  0  0  0  0  0
   14.0961   -1.3114   22.1099 N   0  0  0  0  0  0  0  0  0  0  0  0
   14.5457   -1.6750   20.8609 C   0  0  0  0  0  0  0  0  0  0  0  0
   14.4858   -2.9153   20.2042 C   0  0  0  0  0  0  0  0  0  0  0  0
   14.9704   -3.0151   18.8935 C   0  0  0  0  0  0  0  0  0  0  0  0
   15.5410   -1.9085   18.2619 C   0  0  0  0  0  0  0  0  0  0  0  0
   15.6369   -0.6685   18.9111 C   0  0  0  0  0  0  0  0  0  0  0  0
   15.0972   -0.5852   20.2016 C   0  0  0  0  0  0  0  0  0  0  0  0
   14.9229    0.4584   21.0807 N   0  0  0  0  0  0  0  0  0  0  0  0
    7.7510   -0.2275   26.6709 C   0  0  0  0  0  0  0  0  0  0  0  0
    6.4294   -0.5268   27.0682 C   0  0  0  0  0  0  0  0  0  0  0  0
    6.1056   -1.8521   27.3996 C   0  0  0  0  0  0  0  0  0  0  0  0
    1.5430   -0.1156   28.5538 H   0  0  0  0  0  0  0  0  0  0  0  0
    1.0300   -1.8027   28.7327 H   0  0  0  0  0  0  0  0  0  0  0  0
    1.2872   -0.8022   30.1683 H   0  0  0  0  0  0  0  0  0  0  0  0
    3.1817   -2.3679   29.8338 H   0  0  0  0  0  0  0  0  0  0  0  0
    3.5854   -0.1320   30.8647 H   0  0  0  0  0  0  0  0  0  0  0  0
    5.0110   -0.7155   30.0063 H   0  0  0  0  0  0  0  0  0  0  0  0
    3.9886    0.5360   29.2746 H   0  0  0  0  0  0  0  0  0  0  0  0
    3.6451   -0.9035   27.1604 H   0  0  0  0  0  0  0  0  0  0  0  0
    2.9098   -2.4937   27.3124 H   0  0  0  0  0  0  0  0  0  0  0  0
    4.2757   -4.4391   28.2378 H   0  0  0  0  0  0  0  0  0  0  0  0
    6.8983   -5.0411   27.8348 H   0  0  0  0  0  0  0  0  0  0  0  0
    9.1521   -3.3024   26.9619 H   0  0  0  0  0  0  0  0  0  0  0  0
   10.7058   -1.6997   25.9813 H   0  0  0  0  0  0  0  0  0  0  0  0
   12.1599   -1.0067   24.5446 H   0  0  0  0  0  0  0  0  0  0  0  0
   12.7000    0.0364   25.8574 H   0  0  0  0  0  0  0  0  0  0  0  0
   11.9243    1.2125   23.0993 H   0  0  0  0  0  0  0  0  0  0  0  0
   12.6055    2.0218   24.4731 H   0  0  0  0  0  0  0  0  0  0  0  0
   14.4670    1.8533   23.2017 H   0  0  0  0  0  0  0  0  0  0  0  0
   14.6748    0.4668   24.2498 H   0  0  0  0  0  0  0  0  0  0  0  0
   14.0391   -3.7707   20.7000 H   0  0  0  0  0  0  0  0  0  0  0  0
   14.9030   -3.9695   18.3732 H   0  0  0  0  0  0  0  0  0  0  0  0
   15.9201   -2.0121   17.2472 H   0  0  0  0  0  0  0  0  0  0  0  0
   16.0660    0.1935   18.4122 H   0  0  0  0  0  0  0  0  0  0  0  0
   15.2215    1.4104   20.9315 H   0  0  0  0  0  0  0  0  0  0  0  0
    7.9734    0.7971   26.3807 H   0  0  0  0  0  0  0  0  0  0  0  0
    5.6824    0.2605   27.0731 H   0  0  0  0  0  0  0  0  0  0  0  0
  1  2  1  0
  2  3  1  0
  2  4  1  0
  4  5  1  0
  5  6  1  0
  6  7  2  0
  7  8  1  0
  8  9  2  0
  9 10  1  0
 10 11  1  0
 11 12  1  0
 12 13  2  0
 12 14  1  0
 14 15  1  0
 15 16  1  0
 16 17  1  0
 17 18  2  0
 18 19  1  0
 19 20  2  0
 20 21  1  0
 21 22  2  0
 22 23  1  0
 23 24  2  0
 24 25  1  0
 10 26  2  0
 26 27  1  0
 27 28  2  0
 28  5  1  0
 28  8  1  0
 25 17  1  0
 24 19  1  0
  1 29  1  0
  1 30  1  0
  1 31  1  0
  2 32  1  0
  3 33  1  0
  3 34  1  0
  3 35  1  0
  4 36  1  0
  4 37  1  0
  6 38  1  0
  7 39  1  0
  9 40  1  0
 11 41  1  0
 14 42  1  0
 14 43  1  0
 15 44  1  0
 15 45  1  0
 16 46  1  0
 16 47  1  0
 20 48  1  0
 21 49  1  0
 22 50  1  0
 23 51  1  0
 25 52  1  0
 26 53  1  0
 27 54  1  0
M  END
>  <Energy>  (679) 
22.33414662309097

>  <compound_id>  (679) 
40003

>  <target_id>  (679) 
1

>  <reference_id>  (679) 
40

>  <inspiration_ids>  (679) 
[40, 103]

>  <energy_score>  (679) 
-46.136742795303974

>  <distance_score>  (679) 
8.02400276802953

>  <path>  (679) 
/opt/xchem-fragalysis-2/maxwin/BulkDock/SCRATCH/511017/C40003-P40/C40003-P40.minimised.mol

>  <scratch_subdir>  (679) 
/opt/xchem-fragalysis-2/maxwin/BulkDock/SCRATCH/511017/C40003-P40

>  <fragmenstein_runtime>  (679) 
15.73894190788269

>  <fragmenstein_outcome>  (679) 
too moved

>  <fragmenstein_mode>  (679) 
expansion

>  <fragmenstein_error>  (679) 


$$$$
C40003-P103
     RDKit          3D

 54 57  0  0  0  0  0  0  0  0999 V2000
    6.2509   -1.3183   31.6180 C   0  0  0  0  0  0  0  0  0  0  0  0
    5.3275   -2.5042   31.3431 C   0  0  0  0  0  0  0  0  0  0  0  0
    5.6998   -3.6873   32.2382 C   0  0  0  0  0  0  0  0  0  0  0  0
    5.2612   -2.8843   29.8506 C   0  0  0  0  0  0  0  0  0  0  0  0
    6.5092   -3.3171   29.2440 N   0  0  0  0  0  0  0  0  0  0  0  0
    6.9689   -4.6122   29.2578 C   0  0  0  0  0  0  0  0  0  0  0  0
    8.1577   -4.6438   28.5638 C   0  0  0  0  0  0  0  0  0  0  0  0
    8.4307   -3.3269   28.0850 C   0  0  0  0  0  0  0  0  0  0  0  0
    9.4793   -2.7514   27.3028 C   0  0  0  0  0  0  0  0  0  0  0  0
    9.4683   -1.3868   26.9835 C   0  0  0  0  0  0  0  0  0  0  0  0
   10.4288   -0.7226   26.1689 N   0  0  0  0  0  0  0  0  0  0  0  0
   11.6645   -1.2144   25.5381 C   0  0  0  0  0  0  0  0  0  0  0  0
   12.2128   -2.2779   25.6180 O   0  0  0  0  0  0  0  0  0  0  0  0
   12.2349   -0.0680   24.6183 C   0  0  0  0  0  0  0  0  0  0  0  0
   13.5035   -0.3734   23.7569 C   0  0  0  0  0  0  0  0  0  0  0  0
   13.7649    0.6664   22.6249 C   0  0  0  0  0  0  0  0  0  0  0  0
   14.3296    0.1309   21.3265 C   0  0  0  0  0  0  0  0  0  0  0  0
   14.7384   -1.0908   21.0440 N   0  0  0  0  0  0  0  0  0  0  0  0
   14.8222   -1.1587   19.6722 C   0  0  0  0  0  0  0  0  0  0  0  0
   15.0425   -2.2641   18.8355 C   0  0  0  0  0  0  0  0  0  0  0  0
   14.9594   -2.0887   17.4472 C   0  0  0  0  0  0  0  0  0  0  0  0
   14.6839   -0.8321   16.9022 C   0  0  0  0  0  0  0  0  0  0  0  0
   14.4932    0.2901   17.7200 C   0  0  0  0  0  0  0  0  0  0  0  0
   14.5672    0.0816   19.1014 C   0  0  0  0  0  0  0  0  0  0  0  0
   14.3844    0.9102   20.1842 N   0  0  0  0  0  0  0  0  0  0  0  0
    8.3966   -0.6151   27.4620 C   0  0  0  0  0  0  0  0  0  0  0  0
    7.3391   -1.1531   28.2164 C   0  0  0  0  0  0  0  0  0  0  0  0
    7.3789   -2.5169   28.5261 C   0  0  0  0  0  0  0  0  0  0  0  0
    5.9684   -0.4546   31.0079 H   0  0  0  0  0  0  0  0  0  0  0  0
    7.2980   -1.5618   31.4119 H   0  0  0  0  0  0  0  0  0  0  0  0
    6.1835   -1.0151   32.6686 H   0  0  0  0  0  0  0  0  0  0  0  0
    4.3129   -2.1954   31.6291 H   0  0  0  0  0  0  0  0  0  0  0  0
    6.7396   -3.9964   32.0923 H   0  0  0  0  0  0  0  0  0  0  0  0
    5.5817   -3.4202   33.2941 H   0  0  0  0  0  0  0  0  0  0  0  0
    5.0520   -4.5475   32.0395 H   0  0  0  0  0  0  0  0  0  0  0  0
    4.8764   -2.0434   29.2626 H   0  0  0  0  0  0  0  0  0  0  0  0
    4.5424   -3.7016   29.7176 H   0  0  0  0  0  0  0  0  0  0  0  0
    6.4245   -5.3921   29.7687 H   0  0  0  0  0  0  0  0  0  0  0  0
    8.7770   -5.5147   28.3986 H   0  0  0  0  0  0  0  0  0  0  0  0
   10.2771   -3.3914   26.9353 H   0  0  0  0  0  0  0  0  0  0  0  0
   10.3077    0.2542   25.9431 H   0  0  0  0  0  0  0  0  0  0  0  0
   12.4538    0.7929   25.2618 H   0  0  0  0  0  0  0  0  0  0  0  0
   11.4178    0.2198   23.9451 H   0  0  0  0  0  0  0  0  0  0  0  0
   14.3744   -0.3837   24.4256 H   0  0  0  0  0  0  0  0  0  0  0  0
   13.4482   -1.3942   23.3683 H   0  0  0  0  0  0  0  0  0  0  0  0
   12.8227    1.1745   22.3830 H   0  0  0  0  0  0  0  0  0  0  0  0
   14.4445    1.4372   23.0088 H   0  0  0  0  0  0  0  0  0  0  0  0
   15.2334   -3.2385   19.2709 H   0  0  0  0  0  0  0  0  0  0  0  0
   15.1107   -2.9420   16.7902 H   0  0  0  0  0  0  0  0  0  0  0  0
   14.6269   -0.7209   15.8209 H   0  0  0  0  0  0  0  0  0  0  0  0
   14.2821    1.2660   17.2966 H   0  0  0  0  0  0  0  0  0  0  0  0
   14.1351    1.8865   20.1348 H   0  0  0  0  0  0  0  0  0  0  0  0
    8.3528    0.4473   27.2334 H   0  0  0  0  0  0  0  0  0  0  0  0
    6.5221   -0.5172   28.5380 H   0  0  0  0  0  0  0  0  0  0  0  0
  1  2  1  0
  2  3  1  0
  2  4  1  0
  4  5  1  0
  5  6  1  0
  6  7  2  0
  7  8  1  0
  8  9  2  0
  9 10  1  0
 10 11  1  0
 11 12  1  0
 12 13  2  0
 12 14  1  0
 14 15  1  0
 15 16  1  0
 16 17  1  0
 17 18  2  0
 18 19  1  0
 19 20  2  0
 20 21  1  0
 21 22  2  0
 22 23  1  0
 23 24  2  0
 24 25  1  0
 10 26  2  0
 26 27  1  0
 27 28  2  0
 28  5  1  0
 28  8  1  0
 25 17  1  0
 24 19  1  0
  1 29  1  0
  1 30  1  0
  1 31  1  0
  2 32  1  0
  3 33  1  0
  3 34  1  0
  3 35  1  0
  4 36  1  0
  4 37  1  0
  6 38  1  0
  7 39  1  0
  9 40  1  0
 11 41  1  0
 14 42  1  0
 14 43  1  0
 15 44  1  0
 15 45  1  0
 16 46  1  0
 16 47  1  0
 20 48  1  0
 21 49  1  0
 22 50  1  0
 23 51  1  0
 25 52  1  0
 26 53  1  0
 27 54  1  0
M  END
>  <Energy>  (680) 
30.016795316752916

>  <compound_id>  (680) 
40003

>  <target_id>  (680) 
1

>  <reference_id>  (680) 
103

>  <inspiration_ids>  (680) 
[40, 103]

>  <energy_score>  (680) 
-38.45409410164012

>  <distance_score>  (680) 
8.157485605226391

>  <path>  (680) 
/opt/xchem-fragalysis-2/maxwin/BulkDock/SCRATCH/511017/C40003-P103/C40003-P103.minimised.mol

>  <scratch_subdir>  (680) 
/opt/xchem-fragalysis-2/maxwin/BulkDock/SCRATCH/511017/C40003-P103

>  <fragmenstein_runtime>  (680) 
24.570569038391113

>  <fragmenstein_outcome>  (680) 
too moved

>  <fragmenstein_mode>  (680) 
expansion

>  <fragmenstein_error>  (680) 


$$$$
C40004-P40
     RDKit          3D

 50 53  0  0  0  0  0  0  0  0999 V2000
   -0.3207   -7.0685   30.8974 C   0  0  0  0  0  0  0  0  0  0  0  0
   -0.2316   -5.9968   29.9662 O   0  0  0  0  0  0  0  0  0  0  0  0
    1.1259   -5.6331   29.7027 C   0  0  0  0  0  0  0  0  0  0  0  0
    1.1675   -4.3844   28.8331 C   0  0  0  0  0  0  0  0  0  0  0  0
    2.4907   -4.1559   28.2842 N   0  0  0  0  0  0  0  0  0  0  0  0
    3.0089   -4.8188   27.2010 C   0  0  0  0  0  0  0  0  0  0  0  0
    4.2620   -4.3046   26.9563 C   0  0  0  0  0  0  0  0  0  0  0  0
    4.5357   -3.3159   27.9467 C   0  0  0  0  0  0  0  0  0  0  0  0
    5.6376   -2.4652   28.2158 C   0  0  0  0  0  0  0  0  0  0  0  0
    6.7815   -2.5305   27.4441 O   0  0  0  0  0  0  0  0  0  0  0  0
    7.2412   -1.2882   26.8844 C   0  0  0  0  0  0  0  0  0  0  0  0
    8.7544   -0.9729   27.1667 C   0  0  0  0  0  0  0  0  0  0  0  0
    9.2651   -1.4851   28.1241 O   0  0  0  0  0  0  0  0  0  0  0  0
    9.2883   -0.0254   26.2019 N   0  0  0  0  0  0  0  0  0  0  0  0
   10.5626    0.6627   26.1531 C   0  0  0  0  0  0  0  0  0  0  0  0
   11.0558    1.0978   24.7971 C   0  0  0  0  0  0  0  0  0  0  0  0
   10.5340    1.9881   23.9665 N   0  0  0  0  0  0  0  0  0  0  0  0
   11.5282    2.2741   23.0445 C   0  0  0  0  0  0  0  0  0  0  0  0
   11.5567    3.2079   21.9959 C   0  0  0  0  0  0  0  0  0  0  0  0
   12.7337    3.3428   21.2403 C   0  0  0  0  0  0  0  0  0  0  0  0
   13.8475    2.5340   21.4878 C   0  0  0  0  0  0  0  0  0  0  0  0
   13.8298    1.5809   22.5117 C   0  0  0  0  0  0  0  0  0  0  0  0
   12.6608    1.5045   23.2784 C   0  0  0  0  0  0  0  0  0  0  0  0
   12.3124    0.7274   24.3551 N   0  0  0  0  0  0  0  0  0  0  0  0
    5.5928   -1.6544   29.3579 C   0  0  0  0  0  0  0  0  0  0  0  0
    4.4664   -1.6244   30.1791 C   0  0  0  0  0  0  0  0  0  0  0  0
    3.3530   -2.4158   29.9008 C   0  0  0  0  0  0  0  0  0  0  0  0
    3.4125   -3.2628   28.7842 C   0  0  0  0  0  0  0  0  0  0  0  0
    0.1052   -7.9744   30.4599 H   0  0  0  0  0  0  0  0  0  0  0  0
   -1.3760   -7.2518   31.1130 H   0  0  0  0  0  0  0  0  0  0  0  0
    0.1876   -6.8167   31.8329 H   0  0  0  0  0  0  0  0  0  0  0  0
    1.6102   -6.4732   29.1917 H   0  0  0  0  0  0  0  0  0  0  0  0
    1.6562   -5.4466   30.6443 H   0  0  0  0  0  0  0  0  0  0  0  0
    0.8477   -3.5057   29.4025 H   0  0  0  0  0  0  0  0  0  0  0  0
    0.4755   -4.4504   27.9937 H   0  0  0  0  0  0  0  0  0  0  0  0
    2.4568   -5.5910   26.6858 H   0  0  0  0  0  0  0  0  0  0  0  0
    4.9334   -4.5997   26.1584 H   0  0  0  0  0  0  0  0  0  0  0  0
    6.6569   -0.4269   27.2309 H   0  0  0  0  0  0  0  0  0  0  0  0
    7.0995   -1.3671   25.8070 H   0  0  0  0  0  0  0  0  0  0  0  0
    8.6015    0.1296   25.4759 H   0  0  0  0  0  0  0  0  0  0  0  0
   11.2986    0.0192   26.6484 H   0  0  0  0  0  0  0  0  0  0  0  0
   10.4525    1.5539   26.7813 H   0  0  0  0  0  0  0  0  0  0  0  0
   10.6932    3.8321   21.7971 H   0  0  0  0  0  0  0  0  0  0  0  0
   12.7660    4.0815   20.4423 H   0  0  0  0  0  0  0  0  0  0  0  0
   14.7406    2.6494   20.8780 H   0  0  0  0  0  0  0  0  0  0  0  0
   14.6880    0.9498   22.7132 H   0  0  0  0  0  0  0  0  0  0  0  0
   12.8987    0.0265   24.7824 H   0  0  0  0  0  0  0  0  0  0  0  0
    6.4583   -1.0513   29.6232 H   0  0  0  0  0  0  0  0  0  0  0  0
    4.4606   -0.9759   31.0524 H   0  0  0  0  0  0  0  0  0  0  0  0
    2.4832   -2.3742   30.5480 H   0  0  0  0  0  0  0  0  0  0  0  0
  1  2  1  0
  2  3  1  0
  3  4  1  0
  4  5  1  0
  5  6  1  0
  6  7  2  0
  7  8  1  0
  8  9  2  0
  9 10  1  0
 10 11  1  0
 11 12  1  0
 12 13  2  0
 12 14  1  0
 14 15  1  0
 15 16  1  0
 16 17  2  0
 17 18  1  0
 18 19  2  0
 19 20  1  0
 20 21  2  0
 21 22  1  0
 22 23  2  0
 23 24  1  0
  9 25  1  0
 25 26  2  0
 26 27  1  0
 27 28  2  0
 28  5  1  0
 28  8  1  0
 24 16  1  0
 23 18  1  0
  1 29  1  0
  1 30  1  0
  1 31  1  0
  3 32  1  0
  3 33  1  0
  4 34  1  0
  4 35  1  0
  6 36  1  0
  7 37  1  0
 11 38  1  0
 11 39  1  0
 14 40  1  0
 15 41  1  0
 15 42  1  0
 19 43  1  0
 20 44  1  0
 21 45  1  0
 22 46  1  0
 24 47  1  0
 25 48  1  0
 26 49  1  0
 27 50  1  0
M  END
>  <Energy>  (681) 
73.202577548611686

>  <compound_id>  (681) 
40004

>  <target_id>  (681) 
1

>  <reference_id>  (681) 
40

>  <inspiration_ids>  (681) 
[40, 103]

>  <energy_score>  (681) 
-23.86404337861086

>  <distance_score>  (681) 
7.094875784864185

>  <path>  (681) 
/opt/xchem-fragalysis-2/maxwin/BulkDock/SCRATCH/511017/C40004-P40/C40004-P40.minimised.mol

>  <scratch_subdir>  (681) 
/opt/xchem-fragalysis-2/maxwin/BulkDock/SCRATCH/511017/C40004-P40

>  <fragmenstein_runtime>  (681) 
18.948671340942383

>  <fragmenstein_outcome>  (681) 
too moved

>  <fragmenstein_mode>  (681) 
expansion

>  <fragmenstein_error>  (681) 


$$$$
C40004-P103
     RDKit          3D

 50 53  0  0  0  0  0  0  0  0999 V2000
    0.1768   -3.4495   28.9359 C   0  0  0  0  0  0  0  0  0  0  0  0
    1.2835   -2.8343   29.5788 O   0  0  0  0  0  0  0  0  0  0  0  0
    2.0295   -3.7610   30.3711 C   0  0  0  0  0  0  0  0  0  0  0  0
    3.2544   -3.0611   30.9501 C   0  0  0  0  0  0  0  0  0  0  0  0
    4.3694   -3.0023   30.0124 N   0  0  0  0  0  0  0  0  0  0  0  0
    4.5191   -2.0281   29.0644 C   0  0  0  0  0  0  0  0  0  0  0  0
    5.7446   -2.2077   28.4677 C   0  0  0  0  0  0  0  0  0  0  0  0
    6.3596   -3.3657   29.0289 C   0  0  0  0  0  0  0  0  0  0  0  0
    7.6018   -4.0271   28.7882 C   0  0  0  0  0  0  0  0  0  0  0  0
    8.5013   -3.4348   27.9193 O   0  0  0  0  0  0  0  0  0  0  0  0
    9.7255   -4.0709   27.5274 C   0  0  0  0  0  0  0  0  0  0  0  0
   10.8947   -3.0673   27.1800 C   0  0  0  0  0  0  0  0  0  0  0  0
   11.2225   -2.3271   28.0684 O   0  0  0  0  0  0  0  0  0  0  0  0
   11.4584   -3.2642   25.8566 N   0  0  0  0  0  0  0  0  0  0  0  0
   12.5259   -2.5652   25.1648 C   0  0  0  0  0  0  0  0  0  0  0  0
   13.0361   -3.1046   23.8508 C   0  0  0  0  0  0  0  0  0  0  0  0
   12.6374   -4.1188   23.0977 N   0  0  0  0  0  0  0  0  0  0  0  0
   13.3149   -3.9804   21.8884 C   0  0  0  0  0  0  0  0  0  0  0  0
   13.1826   -4.6771   20.6755 C   0  0  0  0  0  0  0  0  0  0  0  0
   13.9227   -4.2695   19.5548 C   0  0  0  0  0  0  0  0  0  0  0  0
   14.8243   -3.2120   19.6464 C   0  0  0  0  0  0  0  0  0  0  0  0
   15.0022   -2.5228   20.8512 C   0  0  0  0  0  0  0  0  0  0  0  0
   14.2220   -2.9317   21.9400 C   0  0  0  0  0  0  0  0  0  0  0  0
   14.0618   -2.4260   23.2056 N   0  0  0  0  0  0  0  0  0  0  0  0
    7.8180   -5.2233   29.4881 C   0  0  0  0  0  0  0  0  0  0  0  0
    6.8957   -5.7094   30.4251 C   0  0  0  0  0  0  0  0  0  0  0  0
    5.7104   -5.0310   30.7027 C   0  0  0  0  0  0  0  0  0  0  0  0
    5.4513   -3.8650   29.9775 C   0  0  0  0  0  0  0  0  0  0  0  0
    0.5189   -4.2239   28.2434 H   0  0  0  0  0  0  0  0  0  0  0  0
   -0.3617   -2.6848   28.3704 H   0  0  0  0  0  0  0  0  0  0  0  0
   -0.5037   -3.8809   29.6758 H   0  0  0  0  0  0  0  0  0  0  0  0
    2.3169   -4.6291   29.7689 H   0  0  0  0  0  0  0  0  0  0  0  0
    1.3869   -4.0977   31.1925 H   0  0  0  0  0  0  0  0  0  0  0  0
    3.6061   -3.5870   31.8432 H   0  0  0  0  0  0  0  0  0  0  0  0
    3.0246   -2.0288   31.2390 H   0  0  0  0  0  0  0  0  0  0  0  0
    3.7544   -1.2804   28.8966 H   0  0  0  0  0  0  0  0  0  0  0  0
    6.1570   -1.5973   27.6741 H   0  0  0  0  0  0  0  0  0  0  0  0
    9.5349   -4.7480   26.6956 H   0  0  0  0  0  0  0  0  0  0  0  0
   10.1400   -4.6703   28.3454 H   0  0  0  0  0  0  0  0  0  0  0  0
   10.8707   -3.9159   25.3382 H   0  0  0  0  0  0  0  0  0  0  0  0
   13.3585   -2.4889   25.8739 H   0  0  0  0  0  0  0  0  0  0  0  0
   12.1590   -1.5441   25.0049 H   0  0  0  0  0  0  0  0  0  0  0  0
   12.4621   -5.4779   20.5926 H   0  0  0  0  0  0  0  0  0  0  0  0
   13.7708   -4.7679   18.6030 H   0  0  0  0  0  0  0  0  0  0  0  0
   15.3879   -2.9072   18.7674 H   0  0  0  0  0  0  0  0  0  0  0  0
   15.6841   -1.6826   20.9221 H   0  0  0  0  0  0  0  0  0  0  0  0
   14.4996   -1.5857   23.5496 H   0  0  0  0  0  0  0  0  0  0  0  0
    8.7346   -5.7873   29.3553 H   0  0  0  0  0  0  0  0  0  0  0  0
    7.1368   -6.6114   30.9831 H   0  0  0  0  0  0  0  0  0  0  0  0
    5.0280   -5.3885   31.4647 H   0  0  0  0  0  0  0  0  0  0  0  0
  1  2  1  0
  2  3  1  0
  3  4  1  0
  4  5  1  0
  5  6  1  0
  6  7  2  0
  7  8  1  0
  8  9  2  0
  9 10  1  0
 10 11  1  0
 11 12  1  0
 12 13  2  0
 12 14  1  0
 14 15  1  0
 15 16  1  0
 16 17  2  0
 17 18  1  0
 18 19  2  0
 19 20  1  0
 20 21  2  0
 21 22  1  0
 22 23  2  0
 23 24  1  0
  9 25  1  0
 25 26  2  0
 26 27  1  0
 27 28  2  0
 28  5  1  0
 28  8  1  0
 24 16  1  0
 23 18  1  0
  1 29  1  0
  1 30  1  0
  1 31  1  0
  3 32  1  0
  3 33  1  0
  4 34  1  0
  4 35  1  0
  6 36  1  0
  7 37  1  0
 11 38  1  0
 11 39  1  0
 14 40  1  0
 15 41  1  0
 15 42  1  0
 19 43  1  0
 20 44  1  0
 21 45  1  0
 22 46  1  0
 24 47  1  0
 25 48  1  0
 26 49  1  0
 27 50  1  0
M  END
>  <Energy>  (682) 
79.039878756884164

>  <compound_id>  (682) 
40004

>  <target_id>  (682) 
1

>  <reference_id>  (682) 
103

>  <inspiration_ids>  (682) 
[40, 103]

>  <energy_score>  (682) 
-18.026742170335865

>  <distance_score>  (682) 
7.015130319519132

>  <path>  (682) 
/opt/xchem-fragalysis-2/maxwin/BulkDock/SCRATCH/511017/C40004-P103/C40004-P103.minimised.mol

>  <scratch_subdir>  (682) 
/opt/xchem-fragalysis-2/maxwin/BulkDock/SCRATCH/511017/C40004-P103

>  <fragmenstein_runtime>  (682) 
13.807421445846558

>  <fragmenstein_outcome>  (682) 
too moved

>  <fragmenstein_mode>  (682) 
expansion

>  <fragmenstein_error>  (682) 


$$$$
C40008-P40
     RDKit          3D

 47 50  0  0  0  0  0  0  0  0999 V2000
   11.8844   -6.7385   25.3143 O   0  0  0  0  0  0  0  0  0  0  0  0
   11.4654   -5.6476   25.2285 C   0  0  0  0  0  0  0  0  0  0  0  0
   11.9589   -4.4842   24.4130 N   0  0  0  0  0  0  0  0  0  0  0  0
   13.0495   -4.3993   23.4116 C   0  0  0  0  0  0  0  0  0  0  0  0
   12.8810   -3.2366   22.4258 C   0  0  0  0  0  0  0  0  0  0  0  0
   13.6411   -3.2624   21.1245 C   0  0  0  0  0  0  0  0  0  0  0  0
   14.5810   -2.4117   20.7431 N   0  0  0  0  0  0  0  0  0  0  0  0
   14.6618   -2.5194   19.3693 C   0  0  0  0  0  0  0  0  0  0  0  0
   15.4127   -1.7828   18.4399 C   0  0  0  0  0  0  0  0  0  0  0  0
   15.2271   -2.0265   17.0702 C   0  0  0  0  0  0  0  0  0  0  0  0
   14.3203   -2.9916   16.6323 C   0  0  0  0  0  0  0  0  0  0  0  0
   13.5760   -3.7436   17.5445 C   0  0  0  0  0  0  0  0  0  0  0  0
   13.7831   -3.4823   18.9015 C   0  0  0  0  0  0  0  0  0  0  0  0
   13.2108   -3.9995   20.0394 N   0  0  0  0  0  0  0  0  0  0  0  0
   10.2185   -5.0393   25.8274 N   0  0  0  0  0  0  0  0  0  0  0  0
    9.1275   -5.6550   26.6018 C   0  0  0  0  0  0  0  0  0  0  0  0
    7.9882   -4.7332   27.1033 C   0  0  0  0  0  0  0  0  0  0  0  0
    6.5662   -5.2838   26.9770 C   0  0  0  0  0  0  0  0  0  0  0  0
    6.0453   -5.9668   25.8928 C   0  0  0  0  0  0  0  0  0  0  0  0
    4.7169   -6.2200   26.1075 N   0  0  0  0  0  0  0  0  0  0  0  0
    4.3188   -5.6883   27.3111 C   0  0  0  0  0  0  0  0  0  0  0  0
    3.0504   -5.6546   27.9127 C   0  0  0  0  0  0  0  0  0  0  0  0
    2.9220   -5.0140   29.1466 C   0  0  0  0  0  0  0  0  0  0  0  0
    4.0296   -4.4390   29.7590 C   0  0  0  0  0  0  0  0  0  0  0  0
    5.2927   -4.4851   29.1476 C   0  0  0  0  0  0  0  0  0  0  0  0
    5.4547   -5.1128   27.8923 C   0  0  0  0  0  0  0  0  0  0  0  0
   11.3198   -3.7164   24.5087 H   0  0  0  0  0  0  0  0  0  0  0  0
   13.9911   -4.3114   23.9633 H   0  0  0  0  0  0  0  0  0  0  0  0
   13.0682   -5.3614   22.8879 H   0  0  0  0  0  0  0  0  0  0  0  0
   13.1237   -2.3084   22.9546 H   0  0  0  0  0  0  0  0  0  0  0  0
   11.8190   -3.2048   22.1670 H   0  0  0  0  0  0  0  0  0  0  0  0
   16.1036   -1.0220   18.7851 H   0  0  0  0  0  0  0  0  0  0  0  0
   15.7993   -1.4543   16.3444 H   0  0  0  0  0  0  0  0  0  0  0  0
   14.1941   -3.1723   15.5669 H   0  0  0  0  0  0  0  0  0  0  0  0
   12.8790   -4.5030   17.2060 H   0  0  0  0  0  0  0  0  0  0  0  0
   12.4087   -4.6141   20.0312 H   0  0  0  0  0  0  0  0  0  0  0  0
   10.1111   -4.1003   25.4893 H   0  0  0  0  0  0  0  0  0  0  0  0
    8.7457   -6.4636   25.9701 H   0  0  0  0  0  0  0  0  0  0  0  0
    9.6012   -6.1518   27.4567 H   0  0  0  0  0  0  0  0  0  0  0  0
    8.1806   -4.5051   28.1593 H   0  0  0  0  0  0  0  0  0  0  0  0
    8.0212   -3.7706   26.5845 H   0  0  0  0  0  0  0  0  0  0  0  0
    6.4979   -6.2781   24.9605 H   0  0  0  0  0  0  0  0  0  0  0  0
    4.1218   -6.6981   25.4439 H   0  0  0  0  0  0  0  0  0  0  0  0
    2.1890   -6.0882   27.4238 H   0  0  0  0  0  0  0  0  0  0  0  0
    1.9486   -4.9466   29.6256 H   0  0  0  0  0  0  0  0  0  0  0  0
    3.9204   -3.9303   30.7141 H   0  0  0  0  0  0  0  0  0  0  0  0
    6.1434   -4.0125   29.6310 H   0  0  0  0  0  0  0  0  0  0  0  0
  1  2  2  0
  2  3  1  0
  3  4  1  0
  4  5  1  0
  5  6  1  0
  6  7  2  0
  7  8  1  0
  8  9  2  0
  9 10  1  0
 10 11  2  0
 11 12  1  0
 12 13  2  0
 13 14  1  0
  2 15  1  0
 15 16  1  0
 16 17  1  0
 17 18  1  0
 18 19  2  0
 19 20  1  0
 20 21  1  0
 21 22  2  0
 22 23  1  0
 23 24  2  0
 24 25  1  0
 25 26  2  0
 14  6  1  0
 26 18  1  0
 13  8  1  0
 26 21  1  0
  3 27  1  0
  4 28  1  0
  4 29  1  0
  5 30  1  0
  5 31  1  0
  9 32  1  0
 10 33  1  0
 11 34  1  0
 12 35  1  0
 14 36  1  0
 15 37  1  0
 16 38  1  0
 16 39  1  0
 17 40  1  0
 17 41  1  0
 19 42  1  0
 20 43  1  0
 22 44  1  0
 23 45  1  0
 24 46  1  0
 25 47  1  0
M  END
>  <Energy>  (683) 
-12.172927861175436

>  <compound_id>  (683) 
40008

>  <target_id>  (683) 
1

>  <reference_id>  (683) 
40

>  <inspiration_ids>  (683) 
[40, 103]

>  <energy_score>  (683) 
7.054090318202213

>  <distance_score>  (683) 
5.198734710061156

>  <path>  (683) 
/opt/xchem-fragalysis-2/maxwin/BulkDock/SCRATCH/511017/C40008-P40/C40008-P40.minimised.mol

>  <scratch_subdir>  (683) 
/opt/xchem-fragalysis-2/maxwin/BulkDock/SCRATCH/511017/C40008-P40

>  <fragmenstein_runtime>  (683) 
30.63046383857727

>  <fragmenstein_outcome>  (683) 
too moved

>  <fragmenstein_mode>  (683) 
expansion

>  <fragmenstein_error>  (683) 


$$$$
C40008-P103
     RDKit          3D

 47 50  0  0  0  0  0  0  0  0999 V2000
    5.9494   -2.8375   21.1471 O   0  0  0  0  0  0  0  0  0  0  0  0
    5.8336   -1.7236   21.5401 C   0  0  0  0  0  0  0  0  0  0  0  0
    6.8732   -0.2681   21.1466 N   0  0  0  0  0  0  0  0  0  0  0  0
    8.0463   -0.1633   20.4766 C   0  0  0  0  0  0  0  0  0  0  0  0
    9.5356    0.1370   22.0715 C   0  0  0  0  0  0  0  0  0  0  0  0
   11.0606    1.0900   22.2747 C   0  0  0  0  0  0  0  0  0  0  0  0
   11.2822    2.3427   21.8958 N   0  0  0  0  0  0  0  0  0  0  0  0
   12.6385    2.3747   21.6393 C   0  0  0  0  0  0  0  0  0  0  0  0
   13.3767    3.2422   20.8223 C   0  0  0  0  0  0  0  0  0  0  0  0
   14.6898    2.8818   20.4861 C   0  0  0  0  0  0  0  0  0  0  0  0
   15.2718    1.7152   20.9922 C   0  0  0  0  0  0  0  0  0  0  0  0
   14.5702    0.8708   21.8576 C   0  0  0  0  0  0  0  0  0  0  0  0
   13.2535    1.2357   22.1432 C   0  0  0  0  0  0  0  0  0  0  0  0
   12.2338    0.5818   22.8061 N   0  0  0  0  0  0  0  0  0  0  0  0
    4.8315   -1.1974   22.7169 N   0  0  0  0  0  0  0  0  0  0  0  0
    3.8279   -2.0427   23.7722 C   0  0  0  0  0  0  0  0  0  0  0  0
    3.6245   -1.2298   25.1714 C   0  0  0  0  0  0  0  0  0  0  0  0
    3.9531   -1.7702   26.5687 C   0  0  0  0  0  0  0  0  0  0  0  0
    5.1977   -1.6455   27.1601 C   0  0  0  0  0  0  0  0  0  0  0  0
    5.1720   -2.1982   28.4079 N   0  0  0  0  0  0  0  0  0  0  0  0
    3.8972   -2.5706   28.7416 C   0  0  0  0  0  0  0  0  0  0  0  0
    3.4118   -3.1380   29.9326 C   0  0  0  0  0  0  0  0  0  0  0  0
    2.0447   -3.3956   30.0328 C   0  0  0  0  0  0  0  0  0  0  0  0
    1.1953   -3.0531   28.9927 C   0  0  0  0  0  0  0  0  0  0  0  0
    1.7090   -2.4762   27.8210 C   0  0  0  0  0  0  0  0  0  0  0  0
    3.0929   -2.2707   27.6371 C   0  0  0  0  0  0  0  0  0  0  0  0
    6.4689    0.6041   21.5714 H   0  0  0  0  0  0  0  0  0  0  0  0
    8.1716   -0.8466   19.6582 H   0  0  0  0  0  0  0  0  0  0  0  0
    7.7391    0.8752   20.2531 H   0  0  0  0  0  0  0  0  0  0  0  0
    9.1314    1.2399   22.3809 H   0  0  0  0  0  0  0  0  0  0  0  0
    9.4643   -0.0756   23.1436 H   0  0  0  0  0  0  0  0  0  0  0  0
   12.9021    4.1124   20.3826 H   0  0  0  0  0  0  0  0  0  0  0  0
   15.2580    3.5192   19.8125 H   0  0  0  0  0  0  0  0  0  0  0  0
   16.2916    1.4620   20.7100 H   0  0  0  0  0  0  0  0  0  0  0  0
   15.0065   -0.0466   22.2360 H   0  0  0  0  0  0  0  0  0  0  0  0
   12.3134   -0.3782   23.1108 H   0  0  0  0  0  0  0  0  0  0  0  0
    4.8862   -0.1870   22.7769 H   0  0  0  0  0  0  0  0  0  0  0  0
    3.0028   -2.6087   23.3523 H   0  0  0  0  0  0  0  0  0  0  0  0
    4.5038   -2.7555   24.2111 H   0  0  0  0  0  0  0  0  0  0  0  0
    4.1694   -0.2806   25.0965 H   0  0  0  0  0  0  0  0  0  0  0  0
    2.5947   -0.9693   25.2543 H   0  0  0  0  0  0  0  0  0  0  0  0
    6.1298   -1.2757   26.7611 H   0  0  0  0  0  0  0  0  0  0  0  0
    5.9774   -2.2940   29.0075 H   0  0  0  0  0  0  0  0  0  0  0  0
    4.0781   -3.3654   30.7582 H   0  0  0  0  0  0  0  0  0  0  0  0
    1.6427   -3.8381   30.9410 H   0  0  0  0  0  0  0  0  0  0  0  0
    0.1241   -3.2106   29.0847 H   0  0  0  0  0  0  0  0  0  0  0  0
    1.0212   -2.1556   27.0584 H   0  0  0  0  0  0  0  0  0  0  0  0
  1  2  2  0
  2  3  1  0
  3  4  1  0
  4  5  1  0
  5  6  1  0
  6  7  2  0
  7  8  1  0
  8  9  2  0
  9 10  1  0
 10 11  2  0
 11 12  1  0
 12 13  2  0
 13 14  1  0
  2 15  1  0
 15 16  1  0
 16 17  1  0
 17 18  1  0
 18 19  2  0
 19 20  1  0
 20 21  1  0
 21 22  2  0
 22 23  1  0
 23 24  2  0
 24 25  1  0
 25 26  2  0
 14  6  1  0
 26 18  1  0
 13  8  1  0
 26 21  1  0
  3 27  1  0
  4 28  1  0
  4 29  1  0
  5 30  1  0
  5 31  1  0
  9 32  1  0
 10 33  1  0
 11 34  1  0
 12 35  1  0
 14 36  1  0
 15 37  1  0
 16 38  1  0
 16 39  1  0
 17 40  1  0
 17 41  1  0
 19 42  1  0
 20 43  1  0
 22 44  1  0
 23 45  1  0
 24 46  1  0
 25 47  1  0
M  END
>  <Energy>  (684) 
283.5574466222792

>  <compound_id>  (684) 
40008

>  <target_id>  (684) 
1

>  <reference_id>  (684) 
103

>  <inspiration_ids>  (684) 
[40, 103]

>  <energy_score>  (684) 
302.7844648016621

>  <distance_score>  (684) 
5.826960251728547

>  <path>  (684) 
/opt/xchem-fragalysis-2/maxwin/BulkDock/SCRATCH/511017/C40008-P103/C40008-P103.minimised.mol

>  <scratch_subdir>  (684) 
/opt/xchem-fragalysis-2/maxwin/BulkDock/SCRATCH/511017/C40008-P103

>  <fragmenstein_runtime>  (684) 
10.702863216400146

>  <fragmenstein_outcome>  (684) 
too moved

>  <fragmenstein_mode>  (684) 
expansion

>  <fragmenstein_error>  (684) 


$$$$
C40009-P40
     RDKit          3D

 53 56  0  0  0  0  0  0  0  0999 V2000
    0.1957   -5.1039   31.0629 C   0  0  0  0  0  0  0  0  0  0  0  0
    1.1689   -5.2989   29.9029 C   0  0  0  0  0  0  0  0  0  0  0  0
    1.6800   -4.0677   29.1893 C   0  0  0  0  0  0  0  0  0  0  0  0
    1.4166   -2.7695   29.6636 C   0  0  0  0  0  0  0  0  0  0  0  0
    1.9417   -1.6353   29.0480 C   0  0  0  0  0  0  0  0  0  0  0  0
    2.7680   -1.7437   27.9287 C   0  0  0  0  0  0  0  0  0  0  0  0
    3.0530   -3.0129   27.3948 C   0  0  0  0  0  0  0  0  0  0  0  0
    3.8508   -3.4550   26.2746 C   0  0  0  0  0  0  0  0  0  0  0  0
    4.7830   -2.6383   25.3873 C   0  0  0  0  0  0  0  0  0  0  0  0
    4.2755   -1.6594   24.2447 C   0  0  0  0  0  0  0  0  0  0  0  0
    5.0082   -1.6890   22.9802 N   0  0  0  0  0  0  0  0  0  0  0  0
    5.1066   -0.5879   21.8013 C   0  0  0  0  0  0  0  0  0  0  0  0
    4.5298    0.4417   21.6680 O   0  0  0  0  0  0  0  0  0  0  0  0
    6.4808   -1.0178   20.6028 N   0  0  0  0  0  0  0  0  0  0  0  0
    7.2086   -0.1025   19.3167 C   0  0  0  0  0  0  0  0  0  0  0  0
    7.9522    1.2827   19.1419 C   0  0  0  0  0  0  0  0  0  0  0  0
    8.7067    1.2580   17.7970 C   0  0  0  0  0  0  0  0  0  0  0  0
    9.1080    0.1701   17.1588 N   0  0  0  0  0  0  0  0  0  0  0  0
    9.7828    0.5939   16.0448 C   0  0  0  0  0  0  0  0  0  0  0  0
   10.4471   -0.1590   15.0694 C   0  0  0  0  0  0  0  0  0  0  0  0
   11.2105    0.5165   14.1133 C   0  0  0  0  0  0  0  0  0  0  0  0
   11.2847    1.9088   14.1162 C   0  0  0  0  0  0  0  0  0  0  0  0
   10.5997    2.6745   15.0693 C   0  0  0  0  0  0  0  0  0  0  0  0
    9.8599    1.9767   16.0254 C   0  0  0  0  0  0  0  0  0  0  0  0
    9.1307    2.3797   17.1230 N   0  0  0  0  0  0  0  0  0  0  0  0
    3.7477   -4.8348   26.2759 C   0  0  0  0  0  0  0  0  0  0  0  0
    2.9577   -5.2246   27.3227 N   0  0  0  0  0  0  0  0  0  0  0  0
    2.5015   -4.1353   28.0316 C   0  0  0  0  0  0  0  0  0  0  0  0
    0.6692   -4.5654   31.8905 H   0  0  0  0  0  0  0  0  0  0  0  0
   -0.1335   -6.0761   31.4441 H   0  0  0  0  0  0  0  0  0  0  0  0
   -0.6899   -4.5430   30.7507 H   0  0  0  0  0  0  0  0  0  0  0  0
    0.6978   -5.9562   29.1644 H   0  0  0  0  0  0  0  0  0  0  0  0
    2.0484   -5.8232   30.2874 H   0  0  0  0  0  0  0  0  0  0  0  0
    0.7931   -2.6117   30.5405 H   0  0  0  0  0  0  0  0  0  0  0  0
    1.7099   -0.6495   29.4449 H   0  0  0  0  0  0  0  0  0  0  0  0
    3.1710   -0.8481   27.4642 H   0  0  0  0  0  0  0  0  0  0  0  0
    5.4053   -2.0517   26.0817 H   0  0  0  0  0  0  0  0  0  0  0  0
    5.4892   -3.3493   24.9472 H   0  0  0  0  0  0  0  0  0  0  0  0
    3.4329   -0.9987   24.3559 H   0  0  0  0  0  0  0  0  0  0  0  0
    4.8704   -0.8016   24.6248 H   0  0  0  0  0  0  0  0  0  0  0  0
    5.5735   -2.4891   22.7464 H   0  0  0  0  0  0  0  0  0  0  0  0
    6.7984   -1.9521   20.7955 H   0  0  0  0  0  0  0  0  0  0  0  0
    8.1229   -0.6443   19.3035 H   0  0  0  0  0  0  0  0  0  0  0  0
    6.6548   -0.2542   18.3938 H   0  0  0  0  0  0  0  0  0  0  0  0
    7.3293    2.1686   19.1272 H   0  0  0  0  0  0  0  0  0  0  0  0
    8.6833    1.4448   19.9288 H   0  0  0  0  0  0  0  0  0  0  0  0
   10.3854   -1.2414   15.0649 H   0  0  0  0  0  0  0  0  0  0  0  0
   11.7338   -0.0569   13.3526 H   0  0  0  0  0  0  0  0  0  0  0  0
   11.8795    2.4114   13.3567 H   0  0  0  0  0  0  0  0  0  0  0  0
   10.6626    3.7568   15.0751 H   0  0  0  0  0  0  0  0  0  0  0  0
    9.0132    3.3329   17.4332 H   0  0  0  0  0  0  0  0  0  0  0  0
    4.2304   -5.5756   25.6489 H   0  0  0  0  0  0  0  0  0  0  0  0
    2.7767   -6.1843   27.5706 H   0  0  0  0  0  0  0  0  0  0  0  0
  1  2  1  0
  2  3  1  0
  3  4  2  0
  4  5  1  0
  5  6  2  0
  6  7  1  0
  7  8  1  0
  8  9  1  0
  9 10  1  0
 10 11  1  0
 11 12  1  0
 12 13  2  0
 12 14  1  0
 14 15  1  0
 15 16  1  0
 16 17  1  0
 17 18  2  0
 18 19  1  0
 19 20  2  0
 20 21  1  0
 21 22  2  0
 22 23  1  0
 23 24  2  0
 24 25  1  0
  8 26  2  0
 26 27  1  0
 27 28  1  0
 28  3  1  0
 28  7  2  0
 25 17  1  0
 24 19  1  0
  1 29  1  0
  1 30  1  0
  1 31  1  0
  2 32  1  0
  2 33  1  0
  4 34  1  0
  5 35  1  0
  6 36  1  0
  9 37  1  0
  9 38  1  0
 10 39  1  0
 10 40  1  0
 11 41  1  0
 14 42  1  0
 15 43  1  0
 15 44  1  0
 16 45  1  0
 16 46  1  0
 20 47  1  0
 21 48  1  0
 22 49  1  0
 23 50  1  0
 25 51  1  0
 26 52  1  0
 27 53  1  0
M  END
>  <Energy>  (685) 
123.66575551227521

>  <compound_id>  (685) 
40009

>  <target_id>  (685) 
1

>  <reference_id>  (685) 
40

>  <inspiration_ids>  (685) 
[40, 103]

>  <energy_score>  (685) 
135.0289297707173

>  <distance_score>  (685) 
4.391884078877152

>  <path>  (685) 
/opt/xchem-fragalysis-2/maxwin/BulkDock/SCRATCH/511017/C40009-P40/C40009-P40.minimised.mol

>  <scratch_subdir>  (685) 
/opt/xchem-fragalysis-2/maxwin/BulkDock/SCRATCH/511017/C40009-P40

>  <fragmenstein_runtime>  (685) 
17.083098888397217

>  <fragmenstein_outcome>  (685) 
too moved

>  <fragmenstein_mode>  (685) 
expansion

>  <fragmenstein_error>  (685) 


$$$$
C40009-P103
     RDKit          3D

 53 56  0  0  0  0  0  0  0  0999 V2000
    1.5704   -4.2589   31.4164 C   0  0  0  0  0  0  0  0  0  0  0  0
    0.9213   -3.0494   30.7628 C   0  0  0  0  0  0  0  0  0  0  0  0
    1.9195   -2.0961   30.1372 C   0  0  0  0  0  0  0  0  0  0  0  0
    2.4579   -1.0375   30.8812 C   0  0  0  0  0  0  0  0  0  0  0  0
    3.3380   -0.1146   30.3102 C   0  0  0  0  0  0  0  0  0  0  0  0
    3.7254   -0.2047   28.9645 C   0  0  0  0  0  0  0  0  0  0  0  0
    3.2414   -1.2603   28.1753 C   0  0  0  0  0  0  0  0  0  0  0  0
    3.4217   -1.6534   26.7927 C   0  0  0  0  0  0  0  0  0  0  0  0
    4.1485   -1.0355   25.5985 C   0  0  0  0  0  0  0  0  0  0  0  0
    4.3699   -1.9252   24.2541 C   0  0  0  0  0  0  0  0  0  0  0  0
    5.0578   -1.1683   23.1345 N   0  0  0  0  0  0  0  0  0  0  0  0
    5.7167   -1.7246   21.6025 C   0  0  0  0  0  0  0  0  0  0  0  0
    5.6280   -2.8230   21.1867 O   0  0  0  0  0  0  0  0  0  0  0  0
    6.7127   -0.4322   20.7317 N   0  0  0  0  0  0  0  0  0  0  0  0
    7.5398   -0.4688   19.2160 C   0  0  0  0  0  0  0  0  0  0  0  0
    8.1923    0.3581   17.5996 C   0  0  0  0  0  0  0  0  0  0  0  0
    9.3767    0.1187   16.6804 C   0  0  0  0  0  0  0  0  0  0  0  0
    9.7239   -1.0600   16.2144 N   0  0  0  0  0  0  0  0  0  0  0  0
   10.8716   -0.8679   15.4896 C   0  0  0  0  0  0  0  0  0  0  0  0
   11.6886   -1.8075   14.8482 C   0  0  0  0  0  0  0  0  0  0  0  0
   12.8579   -1.3590   14.2282 C   0  0  0  0  0  0  0  0  0  0  0  0
   13.2024   -0.0059   14.2536 C   0  0  0  0  0  0  0  0  0  0  0  0
   12.3870    0.9475   14.8789 C   0  0  0  0  0  0  0  0  0  0  0  0
   11.2208    0.4752   15.4818 C   0  0  0  0  0  0  0  0  0  0  0  0
   10.1996    1.0986   16.1634 N   0  0  0  0  0  0  0  0  0  0  0  0
    2.7344   -2.8191   26.7151 C   0  0  0  0  0  0  0  0  0  0  0  0
    2.0355   -3.0832   27.8397 N   0  0  0  0  0  0  0  0  0  0  0  0
    2.3632   -2.1713   28.8003 C   0  0  0  0  0  0  0  0  0  0  0  0
    0.8071   -4.9136   31.8486 H   0  0  0  0  0  0  0  0  0  0  0  0
    2.2540   -3.9566   32.2166 H   0  0  0  0  0  0  0  0  0  0  0  0
    2.1445   -4.8408   30.6873 H   0  0  0  0  0  0  0  0  0  0  0  0
    0.3221   -2.5088   31.5059 H   0  0  0  0  0  0  0  0  0  0  0  0
    0.2140   -3.3871   29.9959 H   0  0  0  0  0  0  0  0  0  0  0  0
    2.1777   -0.9154   31.9257 H   0  0  0  0  0  0  0  0  0  0  0  0
    3.7278    0.6981   30.9186 H   0  0  0  0  0  0  0  0  0  0  0  0
    4.4054    0.5267   28.5401 H   0  0  0  0  0  0  0  0  0  0  0  0
    3.6288   -0.1082   25.3385 H   0  0  0  0  0  0  0  0  0  0  0  0
    5.1229   -0.7441   25.9932 H   0  0  0  0  0  0  0  0  0  0  0  0
    5.0829   -2.6642   24.5627 H   0  0  0  0  0  0  0  0  0  0  0  0
    3.4659   -2.4104   23.8935 H   0  0  0  0  0  0  0  0  0  0  0  0
    5.1895   -0.1660   23.2176 H   0  0  0  0  0  0  0  0  0  0  0  0
    6.7269    0.3957   21.2817 H   0  0  0  0  0  0  0  0  0  0  0  0
    7.3018    0.5856   19.3641 H   0  0  0  0  0  0  0  0  0  0  0  0
    6.6905   -0.8254   18.6606 H   0  0  0  0  0  0  0  0  0  0  0  0
    7.5117   -0.0752   16.8443 H   0  0  0  0  0  0  0  0  0  0  0  0
    8.1352    1.4559   17.6993 H   0  0  0  0  0  0  0  0  0  0  0  0
   11.4071   -2.8544   14.8311 H   0  0  0  0  0  0  0  0  0  0  0  0
   13.4998   -2.0710   13.7161 H   0  0  0  0  0  0  0  0  0  0  0  0
   14.1194    0.3173   13.7648 H   0  0  0  0  0  0  0  0  0  0  0  0
   12.6542    1.9983   14.8864 H   0  0  0  0  0  0  0  0  0  0  0  0
   10.1434    2.0883   16.3622 H   0  0  0  0  0  0  0  0  0  0  0  0
    2.6624   -3.4305   25.8443 H   0  0  0  0  0  0  0  0  0  0  0  0
    1.3842   -3.8433   27.9606 H   0  0  0  0  0  0  0  0  0  0  0  0
  1  2  1  0
  2  3  1  0
  3  4  2  0
  4  5  1  0
  5  6  2  0
  6  7  1  0
  7  8  1  0
  8  9  1  0
  9 10  1  0
 10 11  1  0
 11 12  1  0
 12 13  2  0
 12 14  1  0
 14 15  1  0
 15 16  1  0
 16 17  1  0
 17 18  2  0
 18 19  1  0
 19 20  2  0
 20 21  1  0
 21 22  2  0
 22 23  1  0
 23 24  2  0
 24 25  1  0
  8 26  2  0
 26 27  1  0
 27 28  1  0
 28  3  1  0
 28  7  2  0
 25 17  1  0
 24 19  1  0
  1 29  1  0
  1 30  1  0
  1 31  1  0
  2 32  1  0
  2 33  1  0
  4 34  1  0
  5 35  1  0
  6 36  1  0
  9 37  1  0
  9 38  1  0
 10 39  1  0
 10 40  1  0
 11 41  1  0
 14 42  1  0
 15 43  1  0
 15 44  1  0
 16 45  1  0
 16 46  1  0
 20 47  1  0
 21 48  1  0
 22 49  1  0
 23 50  1  0
 25 51  1  0
 26 52  1  0
 27 53  1  0
M  END
>  <Energy>  (686) 
230.76709933136314

>  <compound_id>  (686) 
40009

>  <target_id>  (686) 
1

>  <reference_id>  (686) 
103

>  <inspiration_ids>  (686) 
[40, 103]

>  <energy_score>  (686) 
242.13027358980048

>  <distance_score>  (686) 
4.390868081195706

>  <path>  (686) 
/opt/xchem-fragalysis-2/maxwin/BulkDock/SCRATCH/511017/C40009-P103/C40009-P103.minimised.mol

>  <scratch_subdir>  (686) 
/opt/xchem-fragalysis-2/maxwin/BulkDock/SCRATCH/511017/C40009-P103

>  <fragmenstein_runtime>  (686) 
12.765556812286377

>  <fragmenstein_outcome>  (686) 
too moved

>  <fragmenstein_mode>  (686) 
expansion

>  <fragmenstein_error>  (686) 


$$$$
C8478-P40
     RDKit          3D

 50 54  0  0  0  0  0  0  0  0999 V2000
   10.8376   -2.4061   25.2428 O   0  0  0  0  0  0  0  0  0  0  0  0
   10.9804   -3.5660   25.0746 C   0  0  0  0  0  0  0  0  0  0  0  0
   10.1183   -4.6523   25.9580 C   0  0  0  0  0  0  0  0  0  0  0  0
    8.6501   -4.5987   26.3246 N   0  0  0  0  0  0  0  0  0  0  0  0
    7.7677   -5.6066   27.1403 C   0  0  0  0  0  0  0  0  0  0  0  0
    8.0665   -6.5850   27.7121 O   0  0  0  0  0  0  0  0  0  0  0  0
    6.2685   -5.3055   27.2399 C   0  0  0  0  0  0  0  0  0  0  0  0
    5.2465   -6.2788   27.2900 C   0  0  0  0  0  0  0  0  0  0  0  0
    4.0141   -5.7151   27.7203 C   0  0  0  0  0  0  0  0  0  0  0  0
    2.7330   -6.2340   27.9861 C   0  0  0  0  0  0  0  0  0  0  0  0
    1.7644   -5.4092   28.5628 C   0  0  0  0  0  0  0  0  0  0  0  0
    2.0407   -4.0739   28.8395 C   0  0  0  0  0  0  0  0  0  0  0  0
    3.2897   -3.5245   28.5144 C   0  0  0  0  0  0  0  0  0  0  0  0
    4.2686   -4.3703   27.9533 C   0  0  0  0  0  0  0  0  0  0  0  0
    5.5902   -4.1260   27.5507 N   0  0  0  0  0  0  0  0  0  0  0  0
   11.9055   -4.3545   24.0334 N   0  0  0  0  0  0  0  0  0  0  0  0
   12.7354   -3.8631   22.9639 C   0  0  0  0  0  0  0  0  0  0  0  0
   13.3145   -2.6000   22.8666 C   0  0  0  0  0  0  0  0  0  0  0  0
   13.9826   -2.1446   21.6620 C   0  0  0  0  0  0  0  0  0  0  0  0
   14.0256   -2.9254   20.4855 C   0  0  0  0  0  0  0  0  0  0  0  0
   14.3559   -2.3591   19.1735 N   0  0  0  0  0  0  0  0  0  0  0  0
   15.1651   -1.2584   18.9292 C   0  0  0  0  0  0  0  0  0  0  0  0
   15.1177   -0.8300   17.6816 N   0  0  0  0  0  0  0  0  0  0  0  0
   14.2451   -1.6691   17.0448 C   0  0  0  0  0  0  0  0  0  0  0  0
   13.7528   -1.6009   15.7246 C   0  0  0  0  0  0  0  0  0  0  0  0
   12.8524   -2.5668   15.2747 C   0  0  0  0  0  0  0  0  0  0  0  0
   12.4556   -3.5839   16.1286 C   0  0  0  0  0  0  0  0  0  0  0  0
   12.9073   -3.6373   17.4536 C   0  0  0  0  0  0  0  0  0  0  0  0
   13.8050   -2.6696   17.9160 C   0  0  0  0  0  0  0  0  0  0  0  0
   13.5626   -4.2394   20.6388 C   0  0  0  0  0  0  0  0  0  0  0  0
   12.9593   -4.7011   21.8563 C   0  0  0  0  0  0  0  0  0  0  0  0
   10.6405   -4.7052   26.9216 H   0  0  0  0  0  0  0  0  0  0  0  0
   10.2493   -5.6410   25.5067 H   0  0  0  0  0  0  0  0  0  0  0  0
    8.0505   -3.8963   25.8858 H   0  0  0  0  0  0  0  0  0  0  0  0
    5.4316   -7.3296   27.0993 H   0  0  0  0  0  0  0  0  0  0  0  0
    2.5274   -7.2708   27.7670 H   0  0  0  0  0  0  0  0  0  0  0  0
    0.7949   -5.8115   28.8332 H   0  0  0  0  0  0  0  0  0  0  0  0
    1.2784   -3.4385   29.2861 H   0  0  0  0  0  0  0  0  0  0  0  0
    3.4985   -2.4755   28.7042 H   0  0  0  0  0  0  0  0  0  0  0  0
    6.0453   -3.2296   27.6474 H   0  0  0  0  0  0  0  0  0  0  0  0
   11.8496   -5.3469   24.2135 H   0  0  0  0  0  0  0  0  0  0  0  0
   13.2062   -1.8965   23.6923 H   0  0  0  0  0  0  0  0  0  0  0  0
   14.3195   -1.1089   21.6592 H   0  0  0  0  0  0  0  0  0  0  0  0
   15.7596   -0.8107   19.7140 H   0  0  0  0  0  0  0  0  0  0  0  0
   14.0882   -0.8029   15.0708 H   0  0  0  0  0  0  0  0  0  0  0  0
   12.4770   -2.5298   14.2555 H   0  0  0  0  0  0  0  0  0  0  0  0
   11.7731   -4.3523   15.7717 H   0  0  0  0  0  0  0  0  0  0  0  0
   12.5292   -4.4132   18.1003 H   0  0  0  0  0  0  0  0  0  0  0  0
   13.6376   -4.9520   19.8197 H   0  0  0  0  0  0  0  0  0  0  0  0
   12.5807   -5.7209   21.8626 H   0  0  0  0  0  0  0  0  0  0  0  0
  1  2  2  0
  2  3  1  0
  3  4  1  0
  4  5  1  0
  5  6  2  0
  5  7  1  0
  7  8  2  0
  8  9  1  0
  9 10  2  0
 10 11  1  0
 11 12  2  0
 12 13  1  0
 13 14  2  0
 14 15  1  0
  2 16  1  0
 16 17  1  0
 17 18  2  0
 18 19  1  0
 19 20  2  0
 20 21  1  0
 21 22  1  0
 22 23  2  0
 23 24  1  0
 24 25  2  0
 25 26  1  0
 26 27  2  0
 27 28  1  0
 28 29  2  0
 20 30  1  0
 30 31  2  0
 15  7  1  0
 31 17  1  0
 14  9  1  0
 29 21  1  0
 29 24  1  0
  3 32  1  0
  3 33  1  0
  4 34  1  0
  8 35  1  0
 10 36  1  0
 11 37  1  0
 12 38  1  0
 13 39  1  0
 15 40  1  0
 16 41  1  0
 18 42  1  0
 19 43  1  0
 22 44  1  0
 25 45  1  0
 26 46  1  0
 27 47  1  0
 28 48  1  0
 30 49  1  0
 31 50  1  0
M  END
>  <Energy>  (687) 
126.72853654543528

>  <compound_id>  (687) 
8478

>  <target_id>  (687) 
1

>  <reference_id>  (687) 
40

>  <inspiration_ids>  (687) 
[40, 103]

>  <energy_score>  (687) 
29.10370417252102

>  <distance_score>  (687) 
5.1578320395755455

>  <path>  (687) 
/opt/xchem-fragalysis-2/maxwin/BulkDock/SCRATCH/511017/C8478-P40/C8478-P40.minimised.mol

>  <scratch_subdir>  (687) 
/opt/xchem-fragalysis-2/maxwin/BulkDock/SCRATCH/511017/C8478-P40

>  <fragmenstein_runtime>  (687) 
14.938731670379639

>  <fragmenstein_outcome>  (687) 
too moved

>  <fragmenstein_mode>  (687) 
expansion

>  <fragmenstein_error>  (687) 


$$$$
C8478-P103
     RDKit          3D

 50 54  0  0  0  0  0  0  0  0999 V2000
    9.9158    1.5404   26.2106 O   0  0  0  0  0  0  0  0  0  0  0  0
   10.5708    0.5864   26.5363 C   0  0  0  0  0  0  0  0  0  0  0  0
   10.2001   -0.1987   27.8453 C   0  0  0  0  0  0  0  0  0  0  0  0
    8.7979   -0.5157   28.0563 N   0  0  0  0  0  0  0  0  0  0  0  0
    7.9425   -1.4399   27.3986 C   0  0  0  0  0  0  0  0  0  0  0  0
    8.1339   -2.1364   26.4527 O   0  0  0  0  0  0  0  0  0  0  0  0
    6.6361   -1.5712   28.0747 C   0  0  0  0  0  0  0  0  0  0  0  0
    6.2861   -1.7349   29.4107 C   0  0  0  0  0  0  0  0  0  0  0  0
    4.9059   -2.1135   29.4845 C   0  0  0  0  0  0  0  0  0  0  0  0
    4.0396   -2.5226   30.5199 C   0  0  0  0  0  0  0  0  0  0  0  0
    2.7082   -2.8521   30.2230 C   0  0  0  0  0  0  0  0  0  0  0  0
    2.2276   -2.7613   28.9208 C   0  0  0  0  0  0  0  0  0  0  0  0
    3.0689   -2.3636   27.8782 C   0  0  0  0  0  0  0  0  0  0  0  0
    4.4031   -2.0653   28.1906 C   0  0  0  0  0  0  0  0  0  0  0  0
    5.4610   -1.7558   27.3633 N   0  0  0  0  0  0  0  0  0  0  0  0
   11.7779    0.0092   25.9422 N   0  0  0  0  0  0  0  0  0  0  0  0
   12.4758    0.3398   24.7664 C   0  0  0  0  0  0  0  0  0  0  0  0
   12.1622    1.4335   23.9633 C   0  0  0  0  0  0  0  0  0  0  0  0
   12.8340    1.6403   22.7373 C   0  0  0  0  0  0  0  0  0  0  0  0
   13.8122    0.7331   22.2808 C   0  0  0  0  0  0  0  0  0  0  0  0
   14.2967    0.8184   20.9311 N   0  0  0  0  0  0  0  0  0  0  0  0
   14.3571    1.9805   20.1823 C   0  0  0  0  0  0  0  0  0  0  0  0
   14.6229    1.7714   18.9142 N   0  0  0  0  0  0  0  0  0  0  0  0
   14.7514    0.4167   18.8008 C   0  0  0  0  0  0  0  0  0  0  0  0
   14.9513   -0.3430   17.6341 C   0  0  0  0  0  0  0  0  0  0  0  0
   15.0113   -1.7353   17.7252 C   0  0  0  0  0  0  0  0  0  0  0  0
   14.8839   -2.3611   18.9619 C   0  0  0  0  0  0  0  0  0  0  0  0
   14.6860   -1.6203   20.1384 C   0  0  0  0  0  0  0  0  0  0  0  0
   14.6213   -0.2163   20.0433 C   0  0  0  0  0  0  0  0  0  0  0  0
   14.1901   -0.3054   23.1347 C   0  0  0  0  0  0  0  0  0  0  0  0
   13.5264   -0.4967   24.3640 C   0  0  0  0  0  0  0  0  0  0  0  0
   10.5361    0.4033   28.6957 H   0  0  0  0  0  0  0  0  0  0  0  0
   10.7276   -1.1568   27.8748 H   0  0  0  0  0  0  0  0  0  0  0  0
    8.2728   -0.0374   28.7777 H   0  0  0  0  0  0  0  0  0  0  0  0
    6.9755   -1.7075   30.2435 H   0  0  0  0  0  0  0  0  0  0  0  0
    4.3990   -2.5855   31.5425 H   0  0  0  0  0  0  0  0  0  0  0  0
    2.0427   -3.1672   31.0230 H   0  0  0  0  0  0  0  0  0  0  0  0
    1.1904   -3.0044   28.7025 H   0  0  0  0  0  0  0  0  0  0  0  0
    2.7081   -2.3133   26.8536 H   0  0  0  0  0  0  0  0  0  0  0  0
    5.4415   -1.8743   26.3564 H   0  0  0  0  0  0  0  0  0  0  0  0
   12.0124   -0.8447   26.4316 H   0  0  0  0  0  0  0  0  0  0  0  0
   11.3649    2.1167   24.2453 H   0  0  0  0  0  0  0  0  0  0  0  0
   12.4929    2.4675   22.1183 H   0  0  0  0  0  0  0  0  0  0  0  0
   14.1887    2.9554   20.6196 H   0  0  0  0  0  0  0  0  0  0  0  0
   15.0431    0.1589   16.6765 H   0  0  0  0  0  0  0  0  0  0  0  0
   15.1559   -2.3279   16.8254 H   0  0  0  0  0  0  0  0  0  0  0  0
   14.9140   -3.4472   19.0189 H   0  0  0  0  0  0  0  0  0  0  0  0
   14.5140   -2.1437   21.0725 H   0  0  0  0  0  0  0  0  0  0  0  0
   14.9786   -1.0008   22.8662 H   0  0  0  0  0  0  0  0  0  0  0  0
   13.8153   -1.3488   24.9741 H   0  0  0  0  0  0  0  0  0  0  0  0
  1  2  2  0
  2  3  1  0
  3  4  1  0
  4  5  1  0
  5  6  2  0
  5  7  1  0
  7  8  2  0
  8  9  1  0
  9 10  2  0
 10 11  1  0
 11 12  2  0
 12 13  1  0
 13 14  2  0
 14 15  1  0
  2 16  1  0
 16 17  1  0
 17 18  2  0
 18 19  1  0
 19 20  2  0
 20 21  1  0
 21 22  1  0
 22 23  2  0
 23 24  1  0
 24 25  2  0
 25 26  1  0
 26 27  2  0
 27 28  1  0
 28 29  2  0
 20 30  1  0
 30 31  2  0
 15  7  1  0
 31 17  1  0
 14  9  1  0
 29 21  1  0
 29 24  1  0
  3 32  1  0
  3 33  1  0
  4 34  1  0
  8 35  1  0
 10 36  1  0
 11 37  1  0
 12 38  1  0
 13 39  1  0
 15 40  1  0
 16 41  1  0
 18 42  1  0
 19 43  1  0
 22 44  1  0
 25 45  1  0
 26 46  1  0
 27 47  1  0
 28 48  1  0
 30 49  1  0
 31 50  1  0
M  END
>  <Energy>  (688) 
68.890583545809932

>  <compound_id>  (688) 
8478

>  <target_id>  (688) 
1

>  <reference_id>  (688) 
103

>  <inspiration_ids>  (688) 
[40, 103]

>  <energy_score>  (688) 
-38.803470729378205

>  <distance_score>  (688) 
6.2681052139278

>  <path>  (688) 
/opt/xchem-fragalysis-2/maxwin/BulkDock/SCRATCH/511017/C8478-P103/C8478-P103.minimised.mol

>  <scratch_subdir>  (688) 
/opt/xchem-fragalysis-2/maxwin/BulkDock/SCRATCH/511017/C8478-P103

>  <fragmenstein_runtime>  (688) 
28.948705434799194

>  <fragmenstein_outcome>  (688) 
too moved

>  <fragmenstein_mode>  (688) 
expansion

>  <fragmenstein_error>  (688) 


$$$$
C8479-P40
     RDKit          3D

 48 51  0  0  0  0  0  0  0  0999 V2000
    4.6015   -7.8056   25.0851 C   0  0  0  0  0  0  0  0  0  0  0  0
    4.3658   -6.4812   25.7036 C   0  0  0  0  0  0  0  0  0  0  0  0
    3.4196   -6.3276   26.6755 N   0  0  0  0  0  0  0  0  0  0  0  0
    3.3531   -5.0275   27.0919 C   0  0  0  0  0  0  0  0  0  0  0  0
    2.5342   -4.4429   28.0680 C   0  0  0  0  0  0  0  0  0  0  0  0
    2.7008   -3.0826   28.3170 C   0  0  0  0  0  0  0  0  0  0  0  0
    3.6550   -2.3497   27.6176 C   0  0  0  0  0  0  0  0  0  0  0  0
    4.4641   -2.9533   26.6405 C   0  0  0  0  0  0  0  0  0  0  0  0
    4.3118   -4.3228   26.3544 C   0  0  0  0  0  0  0  0  0  0  0  0
    4.9541   -5.2467   25.4539 C   0  0  0  0  0  0  0  0  0  0  0  0
    6.0996   -5.0602   24.5396 C   0  0  0  0  0  0  0  0  0  0  0  0
    6.0622   -4.5907   23.2953 N   0  0  0  0  0  0  0  0  0  0  0  0
    7.1702   -4.5654   22.6277 N   0  0  0  0  0  0  0  0  0  0  0  0
    7.5550   -4.5593   20.7889 C   0  0  0  0  0  0  0  0  0  0  0  0
    6.7952   -4.4906   19.8023 O   0  0  0  0  0  0  0  0  0  0  0  0
    9.5753   -4.9070   20.2306 C   0  0  0  0  0  0  0  0  0  0  0  0
   10.9164   -5.3005   21.1696 C   0  0  0  0  0  0  0  0  0  0  0  0
   10.9352   -5.0160   18.6488 C   0  0  0  0  0  0  0  0  0  0  0  0
   12.4490   -4.3256   18.5575 N   0  0  0  0  0  0  0  0  0  0  0  0
   13.2665   -3.8169   19.5370 C   0  0  0  0  0  0  0  0  0  0  0  0
   14.1302   -2.9335   19.0787 N   0  0  0  0  0  0  0  0  0  0  0  0
   13.9226   -2.8879   17.7300 C   0  0  0  0  0  0  0  0  0  0  0  0
   14.5442   -2.0832   16.7621 C   0  0  0  0  0  0  0  0  0  0  0  0
   14.1402   -2.1883   15.4279 C   0  0  0  0  0  0  0  0  0  0  0  0
   13.1511   -3.0953   15.0606 C   0  0  0  0  0  0  0  0  0  0  0  0
   12.5337   -3.9155   16.0099 C   0  0  0  0  0  0  0  0  0  0  0  0
   12.9229   -3.7745   17.3501 C   0  0  0  0  0  0  0  0  0  0  0  0
    3.8481   -8.5382   25.3899 H   0  0  0  0  0  0  0  0  0  0  0  0
    4.5361   -7.7121   24.0028 H   0  0  0  0  0  0  0  0  0  0  0  0
    5.5880   -8.1853   25.3653 H   0  0  0  0  0  0  0  0  0  0  0  0
    2.8638   -7.0784   27.0502 H   0  0  0  0  0  0  0  0  0  0  0  0
    1.7952   -5.0165   28.6154 H   0  0  0  0  0  0  0  0  0  0  0  0
    2.0787   -2.5841   29.0567 H   0  0  0  0  0  0  0  0  0  0  0  0
    3.7709   -1.2861   27.8160 H   0  0  0  0  0  0  0  0  0  0  0  0
    5.1966   -2.3606   26.0963 H   0  0  0  0  0  0  0  0  0  0  0  0
    7.0288   -5.4334   24.9991 H   0  0  0  0  0  0  0  0  0  0  0  0
    7.9138   -4.5442   23.1154 H   0  0  0  0  0  0  0  0  0  0  0  0
    9.0888   -3.9013   20.1667 H   0  0  0  0  0  0  0  0  0  0  0  0
   11.8164   -5.4738   20.5936 H   0  0  0  0  0  0  0  0  0  0  0  0
   10.8870   -6.3187   21.5736 H   0  0  0  0  0  0  0  0  0  0  0  0
   11.2326   -4.5081   21.8586 H   0  0  0  0  0  0  0  0  0  0  0  0
   10.8175   -5.5300   17.7251 H   0  0  0  0  0  0  0  0  0  0  0  0
   10.7511   -4.2561   17.8618 H   0  0  0  0  0  0  0  0  0  0  0  0
   13.1807   -4.0511   20.5855 H   0  0  0  0  0  0  0  0  0  0  0  0
   15.3194   -1.3861   17.0595 H   0  0  0  0  0  0  0  0  0  0  0  0
   14.6099   -1.5628   14.6738 H   0  0  0  0  0  0  0  0  0  0  0  0
   12.8519   -3.1690   14.0181 H   0  0  0  0  0  0  0  0  0  0  0  0
   11.7782   -4.6294   15.7067 H   0  0  0  0  0  0  0  0  0  0  0  0
  1  2  1  0
  2  3  1  0
  3  4  1  0
  4  5  2  0
  5  6  1  0
  6  7  2  0
  7  8  1  0
  8  9  2  0
  9 10  1  0
 10 11  1  0
 11 12  2  3
 12 13  1  0
 13 14  1  0
 14 15  2  0
 14 16  1  0
 16 17  1  0
 16 18  1  0
 18 19  1  0
 19 20  1  0
 20 21  2  0
 21 22  1  0
 22 23  2  0
 23 24  1  0
 24 25  2  0
 25 26  1  0
 26 27  2  0
 10  2  2  0
 27 19  1  0
  9  4  1  0
 27 22  1  0
  1 28  1  0
  1 29  1  0
  1 30  1  0
  3 31  1  0
  5 32  1  0
  6 33  1  0
  7 34  1  0
  8 35  1  0
 11 36  1  0
 13 37  1  0
 16 38  1  0
 17 39  1  0
 17 40  1  0
 17 41  1  0
 18 42  1  0
 18 43  1  0
 20 44  1  0
 23 45  1  0
 24 46  1  0
 25 47  1  0
 26 48  1  0
M  END
>  <Energy>  (689) 
509.64275350445877

>  <compound_id>  (689) 
8479

>  <target_id>  (689) 
1

>  <reference_id>  (689) 
40

>  <inspiration_ids>  (689) 
[40, 103]

>  <energy_score>  (689) 
409.25307483411956

>  <distance_score>  (689) 
4.786377284141546

>  <path>  (689) 
/opt/xchem-fragalysis-2/maxwin/BulkDock/SCRATCH/511017/C8479-P40/C8479-P40.minimised.mol

>  <scratch_subdir>  (689) 
/opt/xchem-fragalysis-2/maxwin/BulkDock/SCRATCH/511017/C8479-P40

>  <fragmenstein_runtime>  (689) 
12.009218692779541

>  <fragmenstein_outcome>  (689) 
too moved

>  <fragmenstein_mode>  (689) 
expansion

>  <fragmenstein_error>  (689) 


$$$$
C8479-P103
     RDKit          3D

 48 51  0  0  0  0  0  0  0  0999 V2000
    4.9956    0.3795   27.4204 C   0  0  0  0  0  0  0  0  0  0  0  0
    3.9846   -0.6263   27.8373 C   0  0  0  0  0  0  0  0  0  0  0  0
    3.4166   -0.5626   29.0813 N   0  0  0  0  0  0  0  0  0  0  0  0
    2.5454   -1.5993   29.2806 C   0  0  0  0  0  0  0  0  0  0  0  0
    1.7898   -1.9242   30.4184 C   0  0  0  0  0  0  0  0  0  0  0  0
    0.9660   -3.0486   30.3647 C   0  0  0  0  0  0  0  0  0  0  0  0
    0.8952   -3.8074   29.2073 C   0  0  0  0  0  0  0  0  0  0  0  0
    1.6617   -3.4564   28.0863 C   0  0  0  0  0  0  0  0  0  0  0  0
    2.5221   -2.3374   28.0975 C   0  0  0  0  0  0  0  0  0  0  0  0
    3.4618   -1.7272   27.1681 C   0  0  0  0  0  0  0  0  0  0  0  0
    3.8780   -2.1821   25.8309 C   0  0  0  0  0  0  0  0  0  0  0  0
    4.8226   -1.5858   25.1619 N   0  0  0  0  0  0  0  0  0  0  0  0
    5.3592   -2.2993   24.1157 N   0  0  0  0  0  0  0  0  0  0  0  0
    5.4446   -1.9704   22.5273 C   0  0  0  0  0  0  0  0  0  0  0  0
    4.9497   -1.0351   22.0033 O   0  0  0  0  0  0  0  0  0  0  0  0
    6.4644   -3.0679   21.1413 C   0  0  0  0  0  0  0  0  0  0  0  0
    5.5137   -3.6234   20.0077 C   0  0  0  0  0  0  0  0  0  0  0  0
    8.5572   -3.6013   20.9670 C   0  0  0  0  0  0  0  0  0  0  0  0
   10.7230   -3.3875   21.1890 N   0  0  0  0  0  0  0  0  0  0  0  0
   11.6347   -3.5353   22.6271 C   0  0  0  0  0  0  0  0  0  0  0  0
   12.4614   -4.5341   22.7229 N   0  0  0  0  0  0  0  0  0  0  0  0
   12.9655   -4.6412   21.4994 C   0  0  0  0  0  0  0  0  0  0  0  0
   14.1779   -5.2854   21.1685 C   0  0  0  0  0  0  0  0  0  0  0  0
   14.7598   -5.1388   19.9112 C   0  0  0  0  0  0  0  0  0  0  0  0
   14.1405   -4.3501   18.9703 C   0  0  0  0  0  0  0  0  0  0  0  0
   12.9140   -3.7510   19.2667 C   0  0  0  0  0  0  0  0  0  0  0  0
   12.2292   -3.9437   20.5468 C   0  0  0  0  0  0  0  0  0  0  0  0
    4.6726    0.8820   26.5061 H   0  0  0  0  0  0  0  0  0  0  0  0
    5.1376    1.1498   28.1859 H   0  0  0  0  0  0  0  0  0  0  0  0
    5.9651   -0.0971   27.2477 H   0  0  0  0  0  0  0  0  0  0  0  0
    3.6268    0.1414   29.7738 H   0  0  0  0  0  0  0  0  0  0  0  0
    1.8438   -1.3224   31.3199 H   0  0  0  0  0  0  0  0  0  0  0  0
    0.3761   -3.3265   31.2343 H   0  0  0  0  0  0  0  0  0  0  0  0
    0.2460   -4.6775   29.1655 H   0  0  0  0  0  0  0  0  0  0  0  0
    1.5905   -4.0603   27.1978 H   0  0  0  0  0  0  0  0  0  0  0  0
    3.4226   -3.1019   25.4490 H   0  0  0  0  0  0  0  0  0  0  0  0
    5.9407   -3.1104   24.3166 H   0  0  0  0  0  0  0  0  0  0  0  0
    6.5977   -1.9881   20.7386 H   0  0  0  0  0  0  0  0  0  0  0  0
    4.7430   -3.5685   20.7149 H   0  0  0  0  0  0  0  0  0  0  0  0
    4.8967   -4.4794   19.6495 H   0  0  0  0  0  0  0  0  0  0  0  0
    6.2136   -4.4293   19.6421 H   0  0  0  0  0  0  0  0  0  0  0  0
    8.7218   -4.1314   20.0122 H   0  0  0  0  0  0  0  0  0  0  0  0
    8.1974   -4.6047   21.3077 H   0  0  0  0  0  0  0  0  0  0  0  0
   11.3994   -2.8489   23.4329 H   0  0  0  0  0  0  0  0  0  0  0  0
   14.7028   -5.8296   21.9483 H   0  0  0  0  0  0  0  0  0  0  0  0
   15.7172   -5.6067   19.7001 H   0  0  0  0  0  0  0  0  0  0  0  0
   14.6001   -4.1868   17.9990 H   0  0  0  0  0  0  0  0  0  0  0  0
   12.4884   -3.1617   18.4631 H   0  0  0  0  0  0  0  0  0  0  0  0
  1  2  1  0
  2  3  1  0
  3  4  1  0
  4  5  2  0
  5  6  1  0
  6  7  2  0
  7  8  1  0
  8  9  2  0
  9 10  1  0
 10 11  1  0
 11 12  2  3
 12 13  1  0
 13 14  1  0
 14 15  2  0
 14 16  1  0
 16 17  1  0
 16 18  1  0
 18 19  1  0
 19 20  1  0
 20 21  2  0
 21 22  1  0
 22 23  2  0
 23 24  1  0
 24 25  2  0
 25 26  1  0
 26 27  2  0
 10  2  2  0
 27 19  1  0
  9  4  1  0
 27 22  1  0
  1 28  1  0
  1 29  1  0
  1 30  1  0
  3 31  1  0
  5 32  1  0
  6 33  1  0
  7 34  1  0
  8 35  1  0
 11 36  1  0
 13 37  1  0
 16 38  1  0
 17 39  1  0
 17 40  1  0
 17 41  1  0
 18 42  1  0
 18 43  1  0
 20 44  1  0
 23 45  1  0
 24 46  1  0
 25 47  1  0
 26 48  1  0
M  END
>  <Energy>  (690) 
794.34631758941464

>  <compound_id>  (690) 
8479

>  <target_id>  (690) 
1

>  <reference_id>  (690) 
103

>  <inspiration_ids>  (690) 
[40, 103]

>  <energy_score>  (690) 
693.9566389190771

>  <distance_score>  (690) 
5.735479676147852

>  <path>  (690) 
/opt/xchem-fragalysis-2/maxwin/BulkDock/SCRATCH/511017/C8479-P103/C8479-P103.minimised.mol

>  <scratch_subdir>  (690) 
/opt/xchem-fragalysis-2/maxwin/BulkDock/SCRATCH/511017/C8479-P103

>  <fragmenstein_runtime>  (690) 
25.82841730117798

>  <fragmenstein_outcome>  (690) 
too moved

>  <fragmenstein_mode>  (690) 
expansion

>  <fragmenstein_error>  (690) 


$$$$
C8480-P40
     RDKit          3D

 42 45  0  0  0  0  0  0  0  0999 V2000
   10.2659   -2.0683   26.5899 O   0  0  0  0  0  0  0  0  0  0  0  0
   10.2289   -3.2277   26.2799 C   0  0  0  0  0  0  0  0  0  0  0  0
   11.3843   -3.8361   25.4172 C   0  0  0  0  0  0  0  0  0  0  0  0
   12.2555   -2.8163   24.6192 C   0  0  0  0  0  0  0  0  0  0  0  0
   12.8082   -3.4020   23.2807 C   0  0  0  0  0  0  0  0  0  0  0  0
   13.6169   -2.5905   22.3781 N   0  0  0  0  0  0  0  0  0  0  0  0
   14.1707   -1.3613   22.6117 C   0  0  0  0  0  0  0  0  0  0  0  0
   14.7972   -0.8845   21.5552 N   0  0  0  0  0  0  0  0  0  0  0  0
   14.6515   -1.8411   20.5852 C   0  0  0  0  0  0  0  0  0  0  0  0
   15.0846   -1.8296   19.2477 C   0  0  0  0  0  0  0  0  0  0  0  0
   14.7375   -2.8954   18.4130 C   0  0  0  0  0  0  0  0  0  0  0  0
   14.0015   -3.9665   18.9134 C   0  0  0  0  0  0  0  0  0  0  0  0
   13.5940   -4.0172   20.2530 C   0  0  0  0  0  0  0  0  0  0  0  0
   13.9208   -2.9264   21.0674 C   0  0  0  0  0  0  0  0  0  0  0  0
    9.2165   -4.2561   26.5423 N   0  0  0  0  0  0  0  0  0  0  0  0
    7.9410   -4.1693   27.1551 C   0  0  0  0  0  0  0  0  0  0  0  0
    7.4289   -2.9822   27.6791 C   0  0  0  0  0  0  0  0  0  0  0  0
    6.1062   -2.8866   28.1570 C   0  0  0  0  0  0  0  0  0  0  0  0
    5.2913   -4.0215   28.0760 C   0  0  0  0  0  0  0  0  0  0  0  0
    3.9645   -4.1942   28.4014 N   0  0  0  0  0  0  0  0  0  0  0  0
    3.5726   -5.4809   28.1279 C   0  0  0  0  0  0  0  0  0  0  0  0
    4.6661   -6.1507   27.6243 C   0  0  0  0  0  0  0  0  0  0  0  0
    5.7608   -5.2359   27.5814 C   0  0  0  0  0  0  0  0  0  0  0  0
    7.1071   -5.3103   27.1371 C   0  0  0  0  0  0  0  0  0  0  0  0
   10.9494   -4.5458   24.7117 H   0  0  0  0  0  0  0  0  0  0  0  0
   12.0314   -4.4062   26.0941 H   0  0  0  0  0  0  0  0  0  0  0  0
   11.6658   -1.9200   24.4193 H   0  0  0  0  0  0  0  0  0  0  0  0
   13.0928   -2.4964   25.2510 H   0  0  0  0  0  0  0  0  0  0  0  0
   13.4233   -4.2802   23.5132 H   0  0  0  0  0  0  0  0  0  0  0  0
   11.9541   -3.7461   22.6851 H   0  0  0  0  0  0  0  0  0  0  0  0
   14.0682   -0.8465   23.5580 H   0  0  0  0  0  0  0  0  0  0  0  0
   15.6557   -0.9873   18.8738 H   0  0  0  0  0  0  0  0  0  0  0  0
   15.0475   -2.8926   17.3717 H   0  0  0  0  0  0  0  0  0  0  0  0
   13.7337   -4.7848   18.2500 H   0  0  0  0  0  0  0  0  0  0  0  0
   13.0066   -4.8525   20.6168 H   0  0  0  0  0  0  0  0  0  0  0  0
    9.5523   -5.1450   26.2029 H   0  0  0  0  0  0  0  0  0  0  0  0
    8.0432   -2.0841   27.6897 H   0  0  0  0  0  0  0  0  0  0  0  0
    5.7309   -1.9397   28.5323 H   0  0  0  0  0  0  0  0  0  0  0  0
    3.3720   -3.4604   28.7666 H   0  0  0  0  0  0  0  0  0  0  0  0
    2.5551   -5.7946   28.3084 H   0  0  0  0  0  0  0  0  0  0  0  0
    4.6882   -7.1800   27.2940 H   0  0  0  0  0  0  0  0  0  0  0  0
    7.4665   -6.2430   26.7146 H   0  0  0  0  0  0  0  0  0  0  0  0
  1  2  2  0
  2  3  1  0
  3  4  1  0
  4  5  1  0
  5  6  1  0
  6  7  1  0
  7  8  2  0
  8  9  1  0
  9 10  2  0
 10 11  1  0
 11 12  2  0
 12 13  1  0
 13 14  2  0
  2 15  1  0
 15 16  1  0
 16 17  2  0
 17 18  1  0
 18 19  2  0
 19 20  1  0
 20 21  1  0
 21 22  2  0
 22 23  1  0
 23 24  2  0
 14  6  1  0
 24 16  1  0
 14  9  1  0
 23 19  1  0
  3 25  1  0
  3 26  1  0
  4 27  1  0
  4 28  1  0
  5 29  1  0
  5 30  1  0
  7 31  1  0
 10 32  1  0
 11 33  1  0
 12 34  1  0
 13 35  1  0
 15 36  1  0
 17 37  1  0
 18 38  1  0
 20 39  1  0
 21 40  1  0
 22 41  1  0
 24 42  1  0
M  END
>  <Energy>  (691) 
22.035798230786906

>  <compound_id>  (691) 
8480

>  <target_id>  (691) 
1

>  <reference_id>  (691) 
40

>  <inspiration_ids>  (691) 
[40, 103]

>  <energy_score>  (691) 
-7.335160222312254

>  <distance_score>  (691) 
7.074294256254178

>  <path>  (691) 
/opt/xchem-fragalysis-2/maxwin/BulkDock/SCRATCH/511017/C8480-P40/C8480-P40.minimised.mol

>  <scratch_subdir>  (691) 
/opt/xchem-fragalysis-2/maxwin/BulkDock/SCRATCH/511017/C8480-P40

>  <fragmenstein_runtime>  (691) 
10.815852880477905

>  <fragmenstein_outcome>  (691) 
too moved

>  <fragmenstein_mode>  (691) 
expansion

>  <fragmenstein_error>  (691) 


$$$$
C8480-P103
     RDKit          3D

 42 45  0  0  0  0  0  0  0  0999 V2000
   10.4909   -0.0348   25.8131 O   0  0  0  0  0  0  0  0  0  0  0  0
   10.9331   -1.1420   25.9511 C   0  0  0  0  0  0  0  0  0  0  0  0
   12.2522   -1.5524   25.2155 C   0  0  0  0  0  0  0  0  0  0  0  0
   12.8713   -0.4718   24.2754 C   0  0  0  0  0  0  0  0  0  0  0  0
   14.0338   -1.0160   23.3751 C   0  0  0  0  0  0  0  0  0  0  0  0
   14.2759   -0.3721   22.0839 N   0  0  0  0  0  0  0  0  0  0  0  0
   14.2706    0.9761   21.8431 C   0  0  0  0  0  0  0  0  0  0  0  0
   14.4695    1.2571   20.5733 N   0  0  0  0  0  0  0  0  0  0  0  0
   14.6222    0.0442   19.9518 C   0  0  0  0  0  0  0  0  0  0  0  0
   14.8101   -0.2412   18.5870 C   0  0  0  0  0  0  0  0  0  0  0  0
   14.9077   -1.5765   18.1777 C   0  0  0  0  0  0  0  0  0  0  0  0
   14.8330   -2.6086   19.1132 C   0  0  0  0  0  0  0  0  0  0  0  0
   14.6514   -2.3431   20.4795 C   0  0  0  0  0  0  0  0  0  0  0  0
   14.5366   -1.0000   20.8734 C   0  0  0  0  0  0  0  0  0  0  0  0
   10.4263   -2.2849   26.7146 N   0  0  0  0  0  0  0  0  0  0  0  0
    9.2183   -2.4573   27.4413 C   0  0  0  0  0  0  0  0  0  0  0  0
    9.0683   -3.6268   28.2039 C   0  0  0  0  0  0  0  0  0  0  0  0
    7.8977   -3.9215   28.9325 C   0  0  0  0  0  0  0  0  0  0  0  0
    6.8341   -3.0230   28.8344 C   0  0  0  0  0  0  0  0  0  0  0  0
    5.5696   -3.0604   29.3790 N   0  0  0  0  0  0  0  0  0  0  0  0
    4.8281   -2.0012   28.9336 C   0  0  0  0  0  0  0  0  0  0  0  0
    5.6432   -1.2338   28.1325 C   0  0  0  0  0  0  0  0  0  0  0  0
    6.9222   -1.8602   28.0696 C   0  0  0  0  0  0  0  0  0  0  0  0
    8.1433   -1.5616   27.4026 C   0  0  0  0  0  0  0  0  0  0  0  0
   12.0213   -2.4450   24.6218 H   0  0  0  0  0  0  0  0  0  0  0  0
   12.9919   -1.8284   25.9758 H   0  0  0  0  0  0  0  0  0  0  0  0
   13.2571    0.3523   24.8888 H   0  0  0  0  0  0  0  0  0  0  0  0
   12.0791   -0.0276   23.6641 H   0  0  0  0  0  0  0  0  0  0  0  0
   14.9790   -0.9433   23.9267 H   0  0  0  0  0  0  0  0  0  0  0  0
   13.8650   -2.0793   23.1748 H   0  0  0  0  0  0  0  0  0  0  0  0
   14.1056    1.7059   22.6248 H   0  0  0  0  0  0  0  0  0  0  0  0
   14.8694    0.5719   17.8718 H   0  0  0  0  0  0  0  0  0  0  0  0
   15.0497   -1.8056   17.1244 H   0  0  0  0  0  0  0  0  0  0  0  0
   14.9117   -3.6404   18.7783 H   0  0  0  0  0  0  0  0  0  0  0  0
   14.5684   -3.1541   21.1945 H   0  0  0  0  0  0  0  0  0  0  0  0
   11.1006   -3.0369   26.6721 H   0  0  0  0  0  0  0  0  0  0  0  0
    9.8861   -4.3424   28.2504 H   0  0  0  0  0  0  0  0  0  0  0  0
    7.8261   -4.8275   29.5220 H   0  0  0  0  0  0  0  0  0  0  0  0
    5.2279   -3.7852   29.9913 H   0  0  0  0  0  0  0  0  0  0  0  0
    3.7920   -1.8802   29.2184 H   0  0  0  0  0  0  0  0  0  0  0  0
    5.3500   -0.3276   27.6191 H   0  0  0  0  0  0  0  0  0  0  0  0
    8.2095   -0.6477   26.8258 H   0  0  0  0  0  0  0  0  0  0  0  0
  1  2  2  0
  2  3  1  0
  3  4  1  0
  4  5  1  0
  5  6  1  0
  6  7  1  0
  7  8  2  0
  8  9  1  0
  9 10  2  0
 10 11  1  0
 11 12  2  0
 12 13  1  0
 13 14  2  0
  2 15  1  0
 15 16  1  0
 16 17  2  0
 17 18  1  0
 18 19  2  0
 19 20  1  0
 20 21  1  0
 21 22  2  0
 22 23  1  0
 23 24  2  0
 14  6  1  0
 24 16  1  0
 14  9  1  0
 23 19  1  0
  3 25  1  0
  3 26  1  0
  4 27  1  0
  4 28  1  0
  5 29  1  0
  5 30  1  0
  7 31  1  0
 10 32  1  0
 11 33  1  0
 12 34  1  0
 13 35  1  0
 15 36  1  0
 17 37  1  0
 18 38  1  0
 20 39  1  0
 21 40  1  0
 22 41  1  0
 24 42  1  0
M  END
>  <Energy>  (692) 
21.651146834173947

>  <compound_id>  (692) 
8480

>  <target_id>  (692) 
1

>  <reference_id>  (692) 
103

>  <inspiration_ids>  (692) 
[40, 103]

>  <energy_score>  (692) 
-7.719811618924155

>  <distance_score>  (692) 
7.838319654630604

>  <path>  (692) 
/opt/xchem-fragalysis-2/maxwin/BulkDock/SCRATCH/511017/C8480-P103/C8480-P103.minimised.mol

>  <scratch_subdir>  (692) 
/opt/xchem-fragalysis-2/maxwin/BulkDock/SCRATCH/511017/C8480-P103

>  <fragmenstein_runtime>  (692) 
17.1091947555542

>  <fragmenstein_outcome>  (692) 
too moved

>  <fragmenstein_mode>  (692) 
expansion

>  <fragmenstein_error>  (692) 


$$$$
C8481-P40
     RDKit          3D

 37 41  0  0  0  0  0  0  0  0999 V2000
   14.6476   -2.6430   22.8853 C   0  0  0  0  0  0  0  0  0  0  0  0
   13.5100   -3.0915   23.5489 C   0  0  0  0  0  0  0  0  0  0  0  0
   12.5155   -3.8289   22.8955 C   0  0  0  0  0  0  0  0  0  0  0  0
   12.6926   -4.1014   21.5368 C   0  0  0  0  0  0  0  0  0  0  0  0
   13.8388   -3.6479   20.8663 C   0  0  0  0  0  0  0  0  0  0  0  0
   14.8283   -2.9221   21.5368 C   0  0  0  0  0  0  0  0  0  0  0  0
   13.8137   -3.9389   19.5470 N   0  0  0  0  0  0  0  0  0  0  0  0
   12.6506   -4.5048   19.3654 C   0  0  0  0  0  0  0  0  0  0  0  0
   11.9108   -4.7143   20.5437 N   0  0  0  0  0  0  0  0  0  0  0  0
   10.1245   -5.0781   20.6560 C   0  0  0  0  0  0  0  0  0  0  0  0
    8.2751   -4.1921   20.5150 C   0  0  0  0  0  0  0  0  0  0  0  0
    7.0696   -4.8487   20.0758 N   0  0  0  0  0  0  0  0  0  0  0  0
    6.8624   -5.6970   21.8027 O   0  0  0  0  0  0  0  0  0  0  0  0
    6.8650   -4.5520   22.7648 C   0  0  0  0  0  0  0  0  0  0  0  0
    6.0998   -4.6927   24.3065 C   0  0  0  0  0  0  0  0  0  0  0  0
    5.5005   -3.5338   24.9777 C   0  0  0  0  0  0  0  0  0  0  0  0
    4.8036   -3.5382   26.1876 C   0  0  0  0  0  0  0  0  0  0  0  0
    4.6729   -4.7170   26.8818 C   0  0  0  0  0  0  0  0  0  0  0  0
    5.3111   -5.8358   26.3428 C   0  0  0  0  0  0  0  0  0  0  0  0
    5.4043   -7.0828   26.9177 N   0  0  0  0  0  0  0  0  0  0  0  0
    6.1738   -7.8920   26.1502 C   0  0  0  0  0  0  0  0  0  0  0  0
    6.5426   -7.1665   25.0468 C   0  0  0  0  0  0  0  0  0  0  0  0
    6.0131   -5.8613   25.1116 C   0  0  0  0  0  0  0  0  0  0  0  0
    7.3068   -3.4974   21.7177 N   0  0  0  0  0  0  0  0  0  0  0  0
   15.3947   -2.0640   23.4213 H   0  0  0  0  0  0  0  0  0  0  0  0
   13.3782   -2.8439   24.6007 H   0  0  0  0  0  0  0  0  0  0  0  0
   11.6367   -4.1204   23.4515 H   0  0  0  0  0  0  0  0  0  0  0  0
   15.7014   -2.5711   20.9993 H   0  0  0  0  0  0  0  0  0  0  0  0
   12.2398   -4.6287   18.3760 H   0  0  0  0  0  0  0  0  0  0  0  0
   10.4992   -4.7842   21.6143 H   0  0  0  0  0  0  0  0  0  0  0  0
   10.2453   -6.1409   20.6906 H   0  0  0  0  0  0  0  0  0  0  0  0
    5.5830   -2.5653   24.4833 H   0  0  0  0  0  0  0  0  0  0  0  0
    4.3857   -2.6148   26.5773 H   0  0  0  0  0  0  0  0  0  0  0  0
    4.1588   -4.7523   27.8353 H   0  0  0  0  0  0  0  0  0  0  0  0
    5.0149   -7.3316   27.8145 H   0  0  0  0  0  0  0  0  0  0  0  0
    6.4006   -8.9115   26.4310 H   0  0  0  0  0  0  0  0  0  0  0  0
    7.1604   -7.5578   24.2723 H   0  0  0  0  0  0  0  0  0  0  0  0
  1  2  2  0
  2  3  1  0
  3  4  2  0
  4  5  1  0
  5  6  2  0
  5  7  1  0
  7  8  2  0
  8  9  1  0
  9 10  1  0
 10 11  1  0
 11 12  2  0
 12 13  1  0
 13 14  1  0
 14 15  1  0
 15 16  2  0
 16 17  1  0
 17 18  2  0
 18 19  1  0
 19 20  1  0
 20 21  1  0
 21 22  2  0
 22 23  1  0
 14 24  2  0
  6  1  1  0
 24 11  1  0
  9  4  1  0
 23 15  1  0
 23 19  2  0
  1 25  1  0
  2 26  1  0
  3 27  1  0
  6 28  1  0
  8 29  1  0
 10 30  1  0
 10 31  1  0
 16 32  1  0
 17 33  1  0
 18 34  1  0
 20 35  1  0
 21 36  1  0
 22 37  1  0
M  END
>  <Energy>  (693) 
437.24291954311764

>  <compound_id>  (693) 
8481

>  <target_id>  (693) 
1

>  <reference_id>  (693) 
40

>  <inspiration_ids>  (693) 
[40, 103]

>  <energy_score>  (693) 
345.401338356419

>  <distance_score>  (693) 
6.9467272788676455

>  <path>  (693) 
/opt/xchem-fragalysis-2/maxwin/BulkDock/SCRATCH/511017/C8481-P40/C8481-P40.minimised.mol

>  <scratch_subdir>  (693) 
/opt/xchem-fragalysis-2/maxwin/BulkDock/SCRATCH/511017/C8481-P40

>  <fragmenstein_runtime>  (693) 
5.1877617835998535

>  <fragmenstein_outcome>  (693) 
too moved

>  <fragmenstein_mode>  (693) 
expansion

>  <fragmenstein_error>  (693) 


$$$$
C8481-P103
     RDKit          3D

 37 41  0  0  0  0  0  0  0  0999 V2000
   14.5546   -3.0821   17.0133 C   0  0  0  0  0  0  0  0  0  0  0  0
   13.3046   -3.4452   16.5352 C   0  0  0  0  0  0  0  0  0  0  0  0
   12.4289   -4.1990   17.3200 C   0  0  0  0  0  0  0  0  0  0  0  0
   12.8063   -4.5400   18.6388 C   0  0  0  0  0  0  0  0  0  0  0  0
   14.0717   -4.1965   19.1117 C   0  0  0  0  0  0  0  0  0  0  0  0
   14.9538   -3.4669   18.2955 C   0  0  0  0  0  0  0  0  0  0  0  0
   14.2723   -4.6655   20.3777 N   0  0  0  0  0  0  0  0  0  0  0  0
   13.1359   -5.2060   20.7456 C   0  0  0  0  0  0  0  0  0  0  0  0
   12.1622   -5.1578   19.7520 N   0  0  0  0  0  0  0  0  0  0  0  0
   10.3933   -5.4849   20.1251 C   0  0  0  0  0  0  0  0  0  0  0  0
    8.6193   -4.5462   20.2831 C   0  0  0  0  0  0  0  0  0  0  0  0
    7.4408   -5.1344   20.1548 N   0  0  0  0  0  0  0  0  0  0  0  0
    7.5016   -5.5395   22.0845 O   0  0  0  0  0  0  0  0  0  0  0  0
    7.3977   -4.1606   22.6595 C   0  0  0  0  0  0  0  0  0  0  0  0
    6.7226   -3.5142   24.2791 C   0  0  0  0  0  0  0  0  0  0  0  0
    5.4234   -2.4301   24.3487 C   0  0  0  0  0  0  0  0  0  0  0  0
    4.8384   -1.6740   25.3947 C   0  0  0  0  0  0  0  0  0  0  0  0
    5.5743   -1.4525   26.5400 C   0  0  0  0  0  0  0  0  0  0  0  0
    6.9234   -1.9007   26.5968 C   0  0  0  0  0  0  0  0  0  0  0  0
    7.7729   -1.5903   27.6346 N   0  0  0  0  0  0  0  0  0  0  0  0
    8.9000   -2.3241   27.5731 C   0  0  0  0  0  0  0  0  0  0  0  0
    8.8153   -3.0945   26.4424 C   0  0  0  0  0  0  0  0  0  0  0  0
    7.5960   -2.8041   25.6507 C   0  0  0  0  0  0  0  0  0  0  0  0
    8.0310   -3.6087   21.4289 N   0  0  0  0  0  0  0  0  0  0  0  0
   15.2319   -2.5053   16.3886 H   0  0  0  0  0  0  0  0  0  0  0  0
   12.9995   -3.1432   15.5356 H   0  0  0  0  0  0  0  0  0  0  0  0
   11.4717   -4.4874   16.9043 H   0  0  0  0  0  0  0  0  0  0  0  0
   15.9339   -3.1993   18.6763 H   0  0  0  0  0  0  0  0  0  0  0  0
   12.9497   -5.6176   21.7267 H   0  0  0  0  0  0  0  0  0  0  0  0
   10.4653   -6.4455   20.5598 H   0  0  0  0  0  0  0  0  0  0  0  0
   10.9474   -4.9385   20.9149 H   0  0  0  0  0  0  0  0  0  0  0  0
    4.9435   -2.1423   23.4005 H   0  0  0  0  0  0  0  0  0  0  0  0
    3.8936   -1.1633   25.2347 H   0  0  0  0  0  0  0  0  0  0  0  0
    5.1663   -0.8278   27.3282 H   0  0  0  0  0  0  0  0  0  0  0  0
    7.5221   -0.9712   28.3912 H   0  0  0  0  0  0  0  0  0  0  0  0
    9.6501   -2.2822   28.3504 H   0  0  0  0  0  0  0  0  0  0  0  0
    9.5713   -3.8487   26.2777 H   0  0  0  0  0  0  0  0  0  0  0  0
  1  2  2  0
  2  3  1  0
  3  4  2  0
  4  5  1  0
  5  6  2  0
  5  7  1  0
  7  8  2  0
  8  9  1  0
  9 10  1  0
 10 11  1  0
 11 12  2  0
 12 13  1  0
 13 14  1  0
 14 15  1  0
 15 16  2  0
 16 17  1  0
 17 18  2  0
 18 19  1  0
 19 20  1  0
 20 21  1  0
 21 22  2  0
 22 23  1  0
 14 24  2  0
  6  1  1  0
 24 11  1  0
  9  4  1  0
 23 15  1  0
 23 19  2  0
  1 25  1  0
  2 26  1  0
  3 27  1  0
  6 28  1  0
  8 29  1  0
 10 30  1  0
 10 31  1  0
 16 32  1  0
 17 33  1  0
 18 34  1  0
 20 35  1  0
 21 36  1  0
 22 37  1  0
M  END
>  <Energy>  (694) 
555.6124824548906

>  <compound_id>  (694) 
8481

>  <target_id>  (694) 
1

>  <reference_id>  (694) 
103

>  <inspiration_ids>  (694) 
[40, 103]

>  <energy_score>  (694) 
463.77090126819195

>  <distance_score>  (694) 
7.281865672431762

>  <path>  (694) 
/opt/xchem-fragalysis-2/maxwin/BulkDock/SCRATCH/511017/C8481-P103/C8481-P103.minimised.mol

>  <scratch_subdir>  (694) 
/opt/xchem-fragalysis-2/maxwin/BulkDock/SCRATCH/511017/C8481-P103

>  <fragmenstein_runtime>  (694) 
5.703291654586792

>  <fragmenstein_outcome>  (694) 
too moved

>  <fragmenstein_mode>  (694) 
expansion

>  <fragmenstein_error>  (694) 


$$$$
C8482-P40
     RDKit          3D

 39 42  0  0  0  0  0  0  0  0999 V2000
    6.0101   -7.5398   23.8926 O   0  0  0  0  0  0  0  0  0  0  0  0
    6.1969   -6.4904   24.4376 C   0  0  0  0  0  0  0  0  0  0  0  0
    6.7115   -5.2449   23.9284 N   0  0  0  0  0  0  0  0  0  0  0  0
    7.1051   -4.8080   22.4683 C   0  0  0  0  0  0  0  0  0  0  0  0
    8.3065   -4.5145   20.7848 C   0  0  0  0  0  0  0  0  0  0  0  0
   10.2164   -4.9858   20.9104 N   0  0  0  0  0  0  0  0  0  0  0  0
   11.2759   -3.9163   21.5727 C   0  0  0  0  0  0  0  0  0  0  0  0
   12.4777   -4.0264   21.0943 N   0  0  0  0  0  0  0  0  0  0  0  0
   12.5998   -5.3430   21.2094 C   0  0  0  0  0  0  0  0  0  0  0  0
   13.8310   -5.9623   21.4916 C   0  0  0  0  0  0  0  0  0  0  0  0
   13.8452   -7.2311   22.0533 C   0  0  0  0  0  0  0  0  0  0  0  0
   12.6512   -7.9013   22.2630 C   0  0  0  0  0  0  0  0  0  0  0  0
   11.4177   -7.3441   21.8814 C   0  0  0  0  0  0  0  0  0  0  0  0
   11.3437   -6.0188   21.3131 C   0  0  0  0  0  0  0  0  0  0  0  0
    5.8744   -6.4551   25.9008 C   0  0  0  0  0  0  0  0  0  0  0  0
    6.4080   -7.4601   26.7229 C   0  0  0  0  0  0  0  0  0  0  0  0
    6.1518   -7.5002   28.0909 C   0  0  0  0  0  0  0  0  0  0  0  0
    5.3086   -6.5603   28.6769 C   0  0  0  0  0  0  0  0  0  0  0  0
    4.7039   -5.5775   27.8819 C   0  0  0  0  0  0  0  0  0  0  0  0
    3.8039   -4.5209   28.1714 C   0  0  0  0  0  0  0  0  0  0  0  0
    3.6147   -3.8192   27.0083 C   0  0  0  0  0  0  0  0  0  0  0  0
    4.3375   -4.4334   26.0227 N   0  0  0  0  0  0  0  0  0  0  0  0
    5.0134   -5.5232   26.5180 C   0  0  0  0  0  0  0  0  0  0  0  0
    6.8124   -4.5848   24.7008 H   0  0  0  0  0  0  0  0  0  0  0  0
    6.6395   -3.8069   22.6011 H   0  0  0  0  0  0  0  0  0  0  0  0
    6.6788   -5.7871   22.2272 H   0  0  0  0  0  0  0  0  0  0  0  0
    8.3050   -3.4615   20.4742 H   0  0  0  0  0  0  0  0  0  0  0  0
    7.6604   -4.9753   20.0406 H   0  0  0  0  0  0  0  0  0  0  0  0
   10.9528   -3.1766   22.2782 H   0  0  0  0  0  0  0  0  0  0  0  0
   14.7483   -5.3916   21.3895 H   0  0  0  0  0  0  0  0  0  0  0  0
   14.7902   -7.6868   22.3344 H   0  0  0  0  0  0  0  0  0  0  0  0
   12.6692   -8.8924   22.7128 H   0  0  0  0  0  0  0  0  0  0  0  0
   10.5472   -7.9625   22.0845 H   0  0  0  0  0  0  0  0  0  0  0  0
    7.0533   -8.2186   26.2801 H   0  0  0  0  0  0  0  0  0  0  0  0
    6.6122   -8.2737   28.7029 H   0  0  0  0  0  0  0  0  0  0  0  0
    5.1420   -6.5760   29.7435 H   0  0  0  0  0  0  0  0  0  0  0  0
    3.3847   -4.2682   29.1367 H   0  0  0  0  0  0  0  0  0  0  0  0
    3.0574   -2.9135   26.8205 H   0  0  0  0  0  0  0  0  0  0  0  0
    4.4209   -4.1113   25.0722 H   0  0  0  0  0  0  0  0  0  0  0  0
  1  2  2  0
  2  3  1  0
  3  4  1  0
  4  5  1  0
  5  6  1  0
  6  7  1  0
  7  8  2  0
  8  9  1  0
  9 10  2  0
 10 11  1  0
 11 12  2  0
 12 13  1  0
 13 14  2  0
  2 15  1  0
 15 16  2  0
 16 17  1  0
 17 18  2  0
 18 19  1  0
 19 20  1  0
 20 21  2  0
 21 22  1  0
 22 23  1  0
 14  6  1  0
 23 15  1  0
 14  9  1  0
 23 19  2  0
  3 24  1  0
  4 25  1  0
  4 26  1  0
  5 27  1  0
  5 28  1  0
  7 29  1  0
 10 30  1  0
 11 31  1  0
 12 32  1  0
 13 33  1  0
 16 34  1  0
 17 35  1  0
 18 36  1  0
 20 37  1  0
 21 38  1  0
 22 39  1  0
M  END
>  <Energy>  (695) 
374.99379709123565

>  <compound_id>  (695) 
8482

>  <target_id>  (695) 
1

>  <reference_id>  (695) 
40

>  <inspiration_ids>  (695) 
[40, 103]

>  <energy_score>  (695) 
326.25354106454364

>  <distance_score>  (695) 
7.624439441639081

>  <path>  (695) 
/opt/xchem-fragalysis-2/maxwin/BulkDock/SCRATCH/511017/C8482-P40/C8482-P40.minimised.mol

>  <scratch_subdir>  (695) 
/opt/xchem-fragalysis-2/maxwin/BulkDock/SCRATCH/511017/C8482-P40

>  <fragmenstein_runtime>  (695) 
11.620616674423218

>  <fragmenstein_outcome>  (695) 
too moved

>  <fragmenstein_mode>  (695) 
expansion

>  <fragmenstein_error>  (695) 


$$$$
C8482-P103
     RDKit          3D

 39 42  0  0  0  0  0  0  0  0999 V2000
    9.7363    3.2686   24.6843 O   0  0  0  0  0  0  0  0  0  0  0  0
    9.8357    2.1577   24.2444 C   0  0  0  0  0  0  0  0  0  0  0  0
    9.3790    1.5889   22.9669 N   0  0  0  0  0  0  0  0  0  0  0  0
    8.5004    2.2298   21.7846 C   0  0  0  0  0  0  0  0  0  0  0  0
    7.3557    1.3288   20.5399 C   0  0  0  0  0  0  0  0  0  0  0  0
    7.3918    0.0064   19.4174 N   0  0  0  0  0  0  0  0  0  0  0  0
    6.2446   -0.8181   19.2490 C   0  0  0  0  0  0  0  0  0  0  0  0
    5.9888   -1.0563   17.9397 N   0  0  0  0  0  0  0  0  0  0  0  0
    7.2121   -0.5837   16.9103 C   0  0  0  0  0  0  0  0  0  0  0  0
    7.7414   -1.0991   15.6997 C   0  0  0  0  0  0  0  0  0  0  0  0
    8.9803   -0.5967   15.2959 C   0  0  0  0  0  0  0  0  0  0  0  0
    9.5395    0.4953   15.9274 C   0  0  0  0  0  0  0  0  0  0  0  0
    9.0122    0.9575   17.1309 C   0  0  0  0  0  0  0  0  0  0  0  0
    8.0847    0.1264   17.8215 C   0  0  0  0  0  0  0  0  0  0  0  0
   10.4385    1.1085   25.1888 C   0  0  0  0  0  0  0  0  0  0  0  0
   11.3222    0.1140   24.7722 C   0  0  0  0  0  0  0  0  0  0  0  0
   11.4201   -1.1070   25.4585 C   0  0  0  0  0  0  0  0  0  0  0  0
   10.5975   -1.4125   26.5498 C   0  0  0  0  0  0  0  0  0  0  0  0
    9.7117   -0.4356   27.0230 C   0  0  0  0  0  0  0  0  0  0  0  0
    8.6921   -0.4445   28.0174 C   0  0  0  0  0  0  0  0  0  0  0  0
    8.1061    0.7977   28.0127 C   0  0  0  0  0  0  0  0  0  0  0  0
    8.7573    1.5653   27.0808 N   0  0  0  0  0  0  0  0  0  0  0  0
    9.7018    0.8200   26.3956 C   0  0  0  0  0  0  0  0  0  0  0  0
    9.7094    0.6313   22.8929 H   0  0  0  0  0  0  0  0  0  0  0  0
    7.8121    3.0432   22.0885 H   0  0  0  0  0  0  0  0  0  0  0  0
    9.2772    2.9519   21.5408 H   0  0  0  0  0  0  0  0  0  0  0  0
    7.0781    2.1216   19.8306 H   0  0  0  0  0  0  0  0  0  0  0  0
    6.4196    1.0990   21.0543 H   0  0  0  0  0  0  0  0  0  0  0  0
    5.5818   -1.0594   20.0724 H   0  0  0  0  0  0  0  0  0  0  0  0
    7.2215   -1.8543   15.1199 H   0  0  0  0  0  0  0  0  0  0  0  0
    9.4585   -0.9652   14.4074 H   0  0  0  0  0  0  0  0  0  0  0  0
   10.3835    1.0078   15.4688 H   0  0  0  0  0  0  0  0  0  0  0  0
    9.4163    1.8823   17.4956 H   0  0  0  0  0  0  0  0  0  0  0  0
   11.9037    0.2490   23.8619 H   0  0  0  0  0  0  0  0  0  0  0  0
   12.1037   -1.8684   25.0831 H   0  0  0  0  0  0  0  0  0  0  0  0
   10.6357   -2.3986   27.0040 H   0  0  0  0  0  0  0  0  0  0  0  0
    8.4133   -1.2764   28.6507 H   0  0  0  0  0  0  0  0  0  0  0  0
    7.2999    1.2107   28.6039 H   0  0  0  0  0  0  0  0  0  0  0  0
    8.5560    2.5354   26.8709 H   0  0  0  0  0  0  0  0  0  0  0  0
  1  2  2  0
  2  3  1  0
  3  4  1  0
  4  5  1  0
  5  6  1  0
  6  7  1  0
  7  8  2  0
  8  9  1  0
  9 10  2  0
 10 11  1  0
 11 12  2  0
 12 13  1  0
 13 14  2  0
  2 15  1  0
 15 16  2  0
 16 17  1  0
 17 18  2  0
 18 19  1  0
 19 20  1  0
 20 21  2  0
 21 22  1  0
 22 23  1  0
 14  6  1  0
 23 15  1  0
 14  9  1  0
 23 19  2  0
  3 24  1  0
  4 25  1  0
  4 26  1  0
  5 27  1  0
  5 28  1  0
  7 29  1  0
 10 30  1  0
 11 31  1  0
 12 32  1  0
 13 33  1  0
 16 34  1  0
 17 35  1  0
 18 36  1  0
 20 37  1  0
 21 38  1  0
 22 39  1  0
M  END
>  <Energy>  (696) 
248.6076467049858

>  <compound_id>  (696) 
8482

>  <target_id>  (696) 
1

>  <reference_id>  (696) 
103

>  <inspiration_ids>  (696) 
[40, 103]

>  <energy_score>  (696) 
199.8673906782945

>  <distance_score>  (696) 
10.368661056181836

>  <path>  (696) 
/opt/xchem-fragalysis-2/maxwin/BulkDock/SCRATCH/511017/C8482-P103/C8482-P103.minimised.mol

>  <scratch_subdir>  (696) 
/opt/xchem-fragalysis-2/maxwin/BulkDock/SCRATCH/511017/C8482-P103

>  <fragmenstein_runtime>  (696) 
11.220179557800293

>  <fragmenstein_outcome>  (696) 
too moved

>  <fragmenstein_mode>  (696) 
expansion

>  <fragmenstein_error>  (696) 


$$$$
C8483-P40
     RDKit          3D

 52 55  0  0  0  0  0  0  0  0999 V2000
    6.3755   -5.7138   29.5546 C   0  0  0  0  0  0  0  0  0  0  0  0
    5.6621   -6.8619   29.0995 O   0  0  0  0  0  0  0  0  0  0  0  0
    5.9691   -7.1634   27.7328 C   0  0  0  0  0  0  0  0  0  0  0  0
    4.7172   -7.0425   26.8681 C   0  0  0  0  0  0  0  0  0  0  0  0
    4.3264   -5.6606   26.6611 N   0  0  0  0  0  0  0  0  0  0  0  0
    4.8513   -4.8859   25.6700 C   0  0  0  0  0  0  0  0  0  0  0  0
    4.3327   -3.6108   25.7655 C   0  0  0  0  0  0  0  0  0  0  0  0
    4.6603   -2.4511   24.8422 C   0  0  0  0  0  0  0  0  0  0  0  0
    6.0880   -2.4544   24.3340 C   0  0  0  0  0  0  0  0  0  0  0  0
    6.8669   -1.9228   25.1875 O   0  0  0  0  0  0  0  0  0  0  0  0
    6.4181   -3.0639   22.6379 N   0  0  0  0  0  0  0  0  0  0  0  0
    8.0639   -2.9876   21.4666 C   0  0  0  0  0  0  0  0  0  0  0  0
   10.3257   -2.9431   21.8872 C   0  0  0  0  0  0  0  0  0  0  0  0
   11.3560   -3.1722   23.0023 N   0  0  0  0  0  0  0  0  0  0  0  0
   11.3960   -2.7653   24.3006 C   0  0  0  0  0  0  0  0  0  0  0  0
   12.6357   -2.6806   24.7435 N   0  0  0  0  0  0  0  0  0  0  0  0
   13.4440   -3.0373   23.6924 C   0  0  0  0  0  0  0  0  0  0  0  0
   14.8421   -3.0305   23.5697 C   0  0  0  0  0  0  0  0  0  0  0  0
   15.4384   -3.4612   22.3728 C   0  0  0  0  0  0  0  0  0  0  0  0
   14.6626   -3.9160   21.3134 C   0  0  0  0  0  0  0  0  0  0  0  0
   13.2728   -3.9268   21.4161 C   0  0  0  0  0  0  0  0  0  0  0  0
   12.6880   -3.4590   22.6151 C   0  0  0  0  0  0  0  0  0  0  0  0
    3.4804   -3.6273   26.9369 C   0  0  0  0  0  0  0  0  0  0  0  0
    2.7227   -2.6546   27.6287 C   0  0  0  0  0  0  0  0  0  0  0  0
    1.9271   -3.0150   28.7258 C   0  0  0  0  0  0  0  0  0  0  0  0
    1.8953   -4.3276   29.1735 C   0  0  0  0  0  0  0  0  0  0  0  0
    2.6627   -5.3054   28.5400 C   0  0  0  0  0  0  0  0  0  0  0  0
    3.4441   -4.9364   27.4285 C   0  0  0  0  0  0  0  0  0  0  0  0
    6.1396   -4.8390   28.9420 H   0  0  0  0  0  0  0  0  0  0  0  0
    6.0775   -5.5074   30.5853 H   0  0  0  0  0  0  0  0  0  0  0  0
    7.4523   -5.9084   29.5365 H   0  0  0  0  0  0  0  0  0  0  0  0
    6.3154   -8.2019   27.7145 H   0  0  0  0  0  0  0  0  0  0  0  0
    6.7862   -6.5409   27.3468 H   0  0  0  0  0  0  0  0  0  0  0  0
    3.8591   -7.5455   27.3176 H   0  0  0  0  0  0  0  0  0  0  0  0
    4.8901   -7.4843   25.8800 H   0  0  0  0  0  0  0  0  0  0  0  0
    5.5761   -5.2953   24.9748 H   0  0  0  0  0  0  0  0  0  0  0  0
    3.9944   -2.2277   24.0181 H   0  0  0  0  0  0  0  0  0  0  0  0
    4.5737   -1.5387   25.4544 H   0  0  0  0  0  0  0  0  0  0  0  0
    5.6158   -3.3255   22.2253 H   0  0  0  0  0  0  0  0  0  0  0  0
    7.4857   -2.1303   21.1470 H   0  0  0  0  0  0  0  0  0  0  0  0
    7.8368   -3.9036   20.8454 H   0  0  0  0  0  0  0  0  0  0  0  0
   10.7004   -4.0583   21.5745 H   0  0  0  0  0  0  0  0  0  0  0  0
   10.9885   -2.7668   21.0521 H   0  0  0  0  0  0  0  0  0  0  0  0
   10.5219   -2.4847   24.8728 H   0  0  0  0  0  0  0  0  0  0  0  0
   15.4482   -2.6905   24.4023 H   0  0  0  0  0  0  0  0  0  0  0  0
   16.5220   -3.4521   22.2858 H   0  0  0  0  0  0  0  0  0  0  0  0
   15.1381   -4.2637   20.3989 H   0  0  0  0  0  0  0  0  0  0  0  0
   12.6822   -4.2719   20.5747 H   0  0  0  0  0  0  0  0  0  0  0  0
    2.7386   -1.6177   27.3014 H   0  0  0  0  0  0  0  0  0  0  0  0
    1.3377   -2.2514   29.2282 H   0  0  0  0  0  0  0  0  0  0  0  0
    1.2894   -4.5851   30.0377 H   0  0  0  0  0  0  0  0  0  0  0  0
    2.6795   -6.3181   28.9217 H   0  0  0  0  0  0  0  0  0  0  0  0
  1  2  1  0
  2  3  1  0
  3  4  1  0
  4  5  1  0
  5  6  1  0
  6  7  2  0
  7  8  1  0
  8  9  1  0
  9 10  2  0
  9 11  1  0
 11 12  1  0
 12 13  1  0
 13 14  1  0
 14 15  1  0
 15 16  2  0
 16 17  1  0
 17 18  2  0
 18 19  1  0
 19 20  2  0
 20 21  1  0
 21 22  2  0
  7 23  1  0
 23 24  2  0
 24 25  1  0
 25 26  2  0
 26 27  1  0
 27 28  2  0
 28  5  1  0
 22 14  1  0
 28 23  1  0
 22 17  1  0
  1 29  1  0
  1 30  1  0
  1 31  1  0
  3 32  1  0
  3 33  1  0
  4 34  1  0
  4 35  1  0
  6 36  1  0
  8 37  1  0
  8 38  1  0
 11 39  1  0
 12 40  1  0
 12 41  1  0
 13 42  1  0
 13 43  1  0
 15 44  1  0
 18 45  1  0
 19 46  1  0
 20 47  1  0
 21 48  1  0
 24 49  1  0
 25 50  1  0
 26 51  1  0
 27 52  1  0
M  END
>  <Energy>  (697) 
492.47145514063465

>  <compound_id>  (697) 
8483

>  <target_id>  (697) 
1

>  <reference_id>  (697) 
40

>  <inspiration_ids>  (697) 
[40, 103]

>  <energy_score>  (697) 
410.2756546168303

>  <distance_score>  (697) 
6.401701567242674

>  <path>  (697) 
/opt/xchem-fragalysis-2/maxwin/BulkDock/SCRATCH/511017/C8483-P40/C8483-P40.minimised.mol

>  <scratch_subdir>  (697) 
/opt/xchem-fragalysis-2/maxwin/BulkDock/SCRATCH/511017/C8483-P40

>  <fragmenstein_runtime>  (697) 
7.917726993560791

>  <fragmenstein_outcome>  (697) 
too moved

>  <fragmenstein_mode>  (697) 
expansion

>  <fragmenstein_error>  (697) 


$$$$
C8483-P103
     RDKit          3D

 52 55  0  0  0  0  0  0  0  0999 V2000
    6.1122    0.5794   29.4969 C   0  0  0  0  0  0  0  0  0  0  0  0
    5.2987    1.7184   29.2383 O   0  0  0  0  0  0  0  0  0  0  0  0
    5.1970    2.0113   27.8420 C   0  0  0  0  0  0  0  0  0  0  0  0
    3.8320    1.6142   27.2842 C   0  0  0  0  0  0  0  0  0  0  0  0
    3.7536    0.2052   26.9370 N   0  0  0  0  0  0  0  0  0  0  0  0
    4.1630   -0.3119   25.7528 C   0  0  0  0  0  0  0  0  0  0  0  0
    4.0695   -1.6769   25.7245 C   0  0  0  0  0  0  0  0  0  0  0  0
    4.8350   -2.6202   24.5685 C   0  0  0  0  0  0  0  0  0  0  0  0
    5.7044   -2.4404   22.9472 C   0  0  0  0  0  0  0  0  0  0  0  0
    5.3212   -1.5051   22.2895 O   0  0  0  0  0  0  0  0  0  0  0  0
    7.1436   -3.6778   22.6202 N   0  0  0  0  0  0  0  0  0  0  0  0
    8.5025   -3.6442   21.1414 C   0  0  0  0  0  0  0  0  0  0  0  0
   10.8121   -3.4718   21.2243 C   0  0  0  0  0  0  0  0  0  0  0  0
   12.4300   -3.5142   20.5949 N   0  0  0  0  0  0  0  0  0  0  0  0
   13.4679   -3.4065   21.5364 C   0  0  0  0  0  0  0  0  0  0  0  0
   14.6345   -3.1508   21.0056 N   0  0  0  0  0  0  0  0  0  0  0  0
   14.4347   -3.2234   19.6650 C   0  0  0  0  0  0  0  0  0  0  0  0
   15.3900   -3.0155   18.6514 C   0  0  0  0  0  0  0  0  0  0  0  0
   15.0486   -3.2123   17.3169 C   0  0  0  0  0  0  0  0  0  0  0  0
   13.7787   -3.6531   17.0017 C   0  0  0  0  0  0  0  0  0  0  0  0
   12.8215   -3.8696   17.9982 C   0  0  0  0  0  0  0  0  0  0  0  0
   13.1146   -3.5884   19.3549 C   0  0  0  0  0  0  0  0  0  0  0  0
    3.2269   -1.9478   26.9162 C   0  0  0  0  0  0  0  0  0  0  0  0
    2.4372   -2.9941   27.4496 C   0  0  0  0  0  0  0  0  0  0  0  0
    1.8267   -2.9584   28.7138 C   0  0  0  0  0  0  0  0  0  0  0  0
    1.9455   -1.8306   29.4952 C   0  0  0  0  0  0  0  0  0  0  0  0
    2.6014   -0.7146   28.9848 C   0  0  0  0  0  0  0  0  0  0  0  0
    3.1841   -0.7799   27.6981 C   0  0  0  0  0  0  0  0  0  0  0  0
    7.1483    0.7873   29.2126 H   0  0  0  0  0  0  0  0  0  0  0  0
    6.0820    0.3740   30.5702 H   0  0  0  0  0  0  0  0  0  0  0  0
    5.7503   -0.3017   28.9625 H   0  0  0  0  0  0  0  0  0  0  0  0
    6.0256    1.5703   27.2757 H   0  0  0  0  0  0  0  0  0  0  0  0
    5.2922    3.0996   27.7592 H   0  0  0  0  0  0  0  0  0  0  0  0
    3.6243    2.1733   26.3649 H   0  0  0  0  0  0  0  0  0  0  0  0
    3.0297    1.8437   27.9923 H   0  0  0  0  0  0  0  0  0  0  0  0
    4.5379    0.2839   24.9624 H   0  0  0  0  0  0  0  0  0  0  0  0
    3.8962   -2.4913   24.0108 H   0  0  0  0  0  0  0  0  0  0  0  0
    5.7088   -2.0745   24.9299 H   0  0  0  0  0  0  0  0  0  0  0  0
    7.1991   -4.3858   23.3585 H   0  0  0  0  0  0  0  0  0  0  0  0
    8.1670   -4.7046   21.2249 H   0  0  0  0  0  0  0  0  0  0  0  0
    8.3976   -4.1881   20.1739 H   0  0  0  0  0  0  0  0  0  0  0  0
   11.2091   -3.3366   22.2839 H   0  0  0  0  0  0  0  0  0  0  0  0
   11.1561   -4.5991   21.0801 H   0  0  0  0  0  0  0  0  0  0  0  0
   13.2743   -3.4415   22.6005 H   0  0  0  0  0  0  0  0  0  0  0  0
   16.3951   -2.7141   18.9283 H   0  0  0  0  0  0  0  0  0  0  0  0
   15.7858   -3.0475   16.5361 H   0  0  0  0  0  0  0  0  0  0  0  0
   13.5084   -3.8327   15.9667 H   0  0  0  0  0  0  0  0  0  0  0  0
   11.8712   -4.2565   17.6599 H   0  0  0  0  0  0  0  0  0  0  0  0
    2.1702   -3.8176   26.8206 H   0  0  0  0  0  0  0  0  0  0  0  0
    1.2328   -3.8016   29.0528 H   0  0  0  0  0  0  0  0  0  0  0  0
    1.4787   -1.7867   30.4744 H   0  0  0  0  0  0  0  0  0  0  0  0
    2.6395    0.2013   29.5673 H   0  0  0  0  0  0  0  0  0  0  0  0
  1  2  1  0
  2  3  1  0
  3  4  1  0
  4  5  1  0
  5  6  1  0
  6  7  2  0
  7  8  1  0
  8  9  1  0
  9 10  2  0
  9 11  1  0
 11 12  1  0
 12 13  1  0
 13 14  1  0
 14 15  1  0
 15 16  2  0
 16 17  1  0
 17 18  2  0
 18 19  1  0
 19 20  2  0
 20 21  1  0
 21 22  2  0
  7 23  1  0
 23 24  2  0
 24 25  1  0
 25 26  2  0
 26 27  1  0
 27 28  2  0
 28  5  1  0
 22 14  1  0
 28 23  1  0
 22 17  1  0
  1 29  1  0
  1 30  1  0
  1 31  1  0
  3 32  1  0
  3 33  1  0
  4 34  1  0
  4 35  1  0
  6 36  1  0
  8 37  1  0
  8 38  1  0
 11 39  1  0
 12 40  1  0
 12 41  1  0
 13 42  1  0
 13 43  1  0
 15 44  1  0
 18 45  1  0
 19 46  1  0
 20 47  1  0
 21 48  1  0
 24 49  1  0
 25 50  1  0
 26 51  1  0
 27 52  1  0
M  END
>  <Energy>  (698) 
697.00555364597392

>  <compound_id>  (698) 
8483

>  <target_id>  (698) 
1

>  <reference_id>  (698) 
103

>  <inspiration_ids>  (698) 
[40, 103]

>  <energy_score>  (698) 
614.8097531221738

>  <distance_score>  (698) 
5.286944497558851

>  <path>  (698) 
/opt/xchem-fragalysis-2/maxwin/BulkDock/SCRATCH/511017/C8483-P103/C8483-P103.minimised.mol

>  <scratch_subdir>  (698) 
/opt/xchem-fragalysis-2/maxwin/BulkDock/SCRATCH/511017/C8483-P103

>  <fragmenstein_runtime>  (698) 
8.559984922409058

>  <fragmenstein_outcome>  (698) 
too moved

>  <fragmenstein_mode>  (698) 
expansion

>  <fragmenstein_error>  (698) 


$$$$
C8484-P40
     RDKit          3D

 44 47  0  0  0  0  0  0  0  0999 V2000
   13.6501   -2.7910   21.1162 O   0  0  0  0  0  0  0  0  0  0  0  0
   13.3654   -3.6340   20.3557 C   0  0  0  0  0  0  0  0  0  0  0  0
   12.3063   -4.6577   20.4216 N   0  0  0  0  0  0  0  0  0  0  0  0
   11.2401   -4.8635   21.3925 C   0  0  0  0  0  0  0  0  0  0  0  0
    9.5870   -4.8770   20.6520 C   0  0  0  0  0  0  0  0  0  0  0  0
    7.6382   -4.4432   21.3164 C   0  0  0  0  0  0  0  0  0  0  0  0
    6.8168   -5.0454   22.9612 N   0  0  0  0  0  0  0  0  0  0  0  0
    6.4494   -6.3980   23.2052 C   0  0  0  0  0  0  0  0  0  0  0  0
    6.2229   -6.7879   24.4944 C   0  0  0  0  0  0  0  0  0  0  0  0
    5.8978   -5.6529   25.2075 C   0  0  0  0  0  0  0  0  0  0  0  0
    5.3230   -5.5197   26.5025 C   0  0  0  0  0  0  0  0  0  0  0  0
    4.8642   -4.2961   26.9733 C   0  0  0  0  0  0  0  0  0  0  0  0
    4.9741   -3.1913   26.1582 C   0  0  0  0  0  0  0  0  0  0  0  0
    5.5624   -3.2984   24.8840 C   0  0  0  0  0  0  0  0  0  0  0  0
    6.0831   -4.5523   24.3355 C   0  0  0  0  0  0  0  0  0  0  0  0
   13.8925   -3.9185   19.0029 N   0  0  0  0  0  0  0  0  0  0  0  0
   14.7567   -3.2487   18.2517 N   0  0  0  0  0  0  0  0  0  0  0  0
   15.6906   -2.3541   18.6777 C   0  0  0  0  0  0  0  0  0  0  0  0
   15.9839   -1.4813   17.7306 N   0  0  0  0  0  0  0  0  0  0  0  0
   15.1389   -1.7848   16.6859 C   0  0  0  0  0  0  0  0  0  0  0  0
   14.9397   -1.1229   15.4640 C   0  0  0  0  0  0  0  0  0  0  0  0
   13.9619   -1.6031   14.5809 C   0  0  0  0  0  0  0  0  0  0  0  0
   13.2011   -2.7279   14.8987 C   0  0  0  0  0  0  0  0  0  0  0  0
   13.3909   -3.4088   16.1039 C   0  0  0  0  0  0  0  0  0  0  0  0
   14.3705   -2.9065   16.9759 C   0  0  0  0  0  0  0  0  0  0  0  0
   12.2879   -5.1644   19.5703 H   0  0  0  0  0  0  0  0  0  0  0  0
   11.4507   -5.8724   21.7606 H   0  0  0  0  0  0  0  0  0  0  0  0
   11.3509   -4.0908   22.1589 H   0  0  0  0  0  0  0  0  0  0  0  0
    9.8033   -5.6024   19.8462 H   0  0  0  0  0  0  0  0  0  0  0  0
    9.0664   -4.1084   20.0805 H   0  0  0  0  0  0  0  0  0  0  0  0
    7.0654   -4.7631   20.3683 H   0  0  0  0  0  0  0  0  0  0  0  0
    7.3993   -3.3661   21.4215 H   0  0  0  0  0  0  0  0  0  0  0  0
    6.3681   -6.9590   22.3199 H   0  0  0  0  0  0  0  0  0  0  0  0
    6.0470   -7.7983   24.8348 H   0  0  0  0  0  0  0  0  0  0  0  0
    5.2092   -6.4089   27.1160 H   0  0  0  0  0  0  0  0  0  0  0  0
    4.4261   -4.2125   27.9615 H   0  0  0  0  0  0  0  0  0  0  0  0
    4.6234   -2.2204   26.4981 H   0  0  0  0  0  0  0  0  0  0  0  0
    5.6132   -2.3946   24.2919 H   0  0  0  0  0  0  0  0  0  0  0  0
   13.4861   -4.7669   18.6602 H   0  0  0  0  0  0  0  0  0  0  0  0
   16.0887   -2.3577   19.6834 H   0  0  0  0  0  0  0  0  0  0  0  0
   15.5232   -0.2399   15.2275 H   0  0  0  0  0  0  0  0  0  0  0  0
   13.7921   -1.0861   13.6393 H   0  0  0  0  0  0  0  0  0  0  0  0
   12.4426   -3.0772   14.2008 H   0  0  0  0  0  0  0  0  0  0  0  0
   12.7929   -4.2807   16.3516 H   0  0  0  0  0  0  0  0  0  0  0  0
  1  2  2  0
  2  3  1  0
  3  4  1  0
  4  5  1  0
  5  6  1  0
  6  7  1  0
  7  8  1  0
  8  9  2  0
  9 10  1  0
 10 11  2  0
 11 12  1  0
 12 13  2  0
 13 14  1  0
 14 15  2  0
  2 16  1  0
 16 17  1  0
 17 18  1  0
 18 19  2  0
 19 20  1  0
 20 21  2  0
 21 22  1  0
 22 23  2  0
 23 24  1  0
 24 25  2  0
 15  7  1  0
 25 17  1  0
 15 10  1  0
 25 20  1  0
  3 26  1  0
  4 27  1  0
  4 28  1  0
  5 29  1  0
  5 30  1  0
  6 31  1  0
  6 32  1  0
  8 33  1  0
  9 34  1  0
 11 35  1  0
 12 36  1  0
 13 37  1  0
 14 38  1  0
 16 39  1  0
 18 40  1  0
 21 41  1  0
 22 42  1  0
 23 43  1  0
 24 44  1  0
M  END
>  <Energy>  (699) 
273.00127091613359

>  <compound_id>  (699) 
8484

>  <target_id>  (699) 
1

>  <reference_id>  (699) 
40

>  <inspiration_ids>  (699) 
[40, 103]

>  <energy_score>  (699) 
308.16433759849986

>  <distance_score>  (699) 
5.336480856079178

>  <path>  (699) 
/opt/xchem-fragalysis-2/maxwin/BulkDock/SCRATCH/511017/C8484-P40/C8484-P40.minimised.mol

>  <scratch_subdir>  (699) 
/opt/xchem-fragalysis-2/maxwin/BulkDock/SCRATCH/511017/C8484-P40

>  <fragmenstein_runtime>  (699) 
8.020074129104614

>  <fragmenstein_outcome>  (699) 
too moved

>  <fragmenstein_mode>  (699) 
expansion

>  <fragmenstein_error>  (699) 


$$$$
C8484-P103
     RDKit          3D

 44 47  0  0  0  0  0  0  0  0999 V2000
    7.9779    1.8043   17.9555 O   0  0  0  0  0  0  0  0  0  0  0  0
    8.2076    0.6436   17.8604 C   0  0  0  0  0  0  0  0  0  0  0  0
    7.8389   -0.5774   19.1641 N   0  0  0  0  0  0  0  0  0  0  0  0
    7.0921   -0.4224   20.5494 C   0  0  0  0  0  0  0  0  0  0  0  0
    5.7176   -1.4439   21.6757 C   0  0  0  0  0  0  0  0  0  0  0  0
    5.1520   -1.3553   23.5535 C   0  0  0  0  0  0  0  0  0  0  0  0
    4.7157   -1.8062   24.9383 N   0  0  0  0  0  0  0  0  0  0  0  0
    3.6362   -2.6605   25.0663 C   0  0  0  0  0  0  0  0  0  0  0  0
    3.1593   -2.7226   26.3449 C   0  0  0  0  0  0  0  0  0  0  0  0
    3.9171   -1.8928   27.1362 C   0  0  0  0  0  0  0  0  0  0  0  0
    3.8103   -1.6332   28.5207 C   0  0  0  0  0  0  0  0  0  0  0  0
    4.5145   -0.5873   29.0787 C   0  0  0  0  0  0  0  0  0  0  0  0
    5.2683    0.2102   28.2430 C   0  0  0  0  0  0  0  0  0  0  0  0
    5.3800   -0.0549   26.8601 C   0  0  0  0  0  0  0  0  0  0  0  0
    4.7633   -1.1765   26.2589 C   0  0  0  0  0  0  0  0  0  0  0  0
    8.9179   -0.1180   16.7744 N   0  0  0  0  0  0  0  0  0  0  0  0
    9.5611    0.3162   15.6737 N   0  0  0  0  0  0  0  0  0  0  0  0
    9.7682    1.6462   15.4183 C   0  0  0  0  0  0  0  0  0  0  0  0
   10.8094    1.8464   14.6400 N   0  0  0  0  0  0  0  0  0  0  0  0
   11.3934    0.6127   14.5183 C   0  0  0  0  0  0  0  0  0  0  0  0
   12.6005    0.2670   13.8914 C   0  0  0  0  0  0  0  0  0  0  0  0
   13.0452   -1.0571   13.9538 C   0  0  0  0  0  0  0  0  0  0  0  0
   12.2949   -2.0210   14.6186 C   0  0  0  0  0  0  0  0  0  0  0  0
   11.0847   -1.6991   15.2355 C   0  0  0  0  0  0  0  0  0  0  0  0
   10.6490   -0.3695   15.1734 C   0  0  0  0  0  0  0  0  0  0  0  0
    8.1794   -1.4093   18.9165 H   0  0  0  0  0  0  0  0  0  0  0  0
    7.4229    0.5454   20.9225 H   0  0  0  0  0  0  0  0  0  0  0  0
    6.4989   -0.0440   19.7663 H   0  0  0  0  0  0  0  0  0  0  0  0
    5.6153   -2.4734   21.3053 H   0  0  0  0  0  0  0  0  0  0  0  0
    4.9929   -0.6184   21.6476 H   0  0  0  0  0  0  0  0  0  0  0  0
    4.9676   -0.2985   23.7028 H   0  0  0  0  0  0  0  0  0  0  0  0
    4.2704   -1.8289   23.1774 H   0  0  0  0  0  0  0  0  0  0  0  0
    3.2110   -3.0828   24.1785 H   0  0  0  0  0  0  0  0  0  0  0  0
    2.3035   -3.2765   26.6932 H   0  0  0  0  0  0  0  0  0  0  0  0
    3.1381   -2.2273   29.1318 H   0  0  0  0  0  0  0  0  0  0  0  0
    4.4354   -0.3673   30.1376 H   0  0  0  0  0  0  0  0  0  0  0  0
    5.7882    1.0728   28.6541 H   0  0  0  0  0  0  0  0  0  0  0  0
    5.9525    0.6690   26.3133 H   0  0  0  0  0  0  0  0  0  0  0  0
    8.8610   -1.0727   16.9579 H   0  0  0  0  0  0  0  0  0  0  0  0
    9.1380    2.4264   15.8262 H   0  0  0  0  0  0  0  0  0  0  0  0
   13.1826    1.0289   13.3847 H   0  0  0  0  0  0  0  0  0  0  0  0
   13.9791   -1.3337   13.4705 H   0  0  0  0  0  0  0  0  0  0  0  0
   12.6364   -3.0496   14.6426 H   0  0  0  0  0  0  0  0  0  0  0  0
   10.5038   -2.4829   15.6880 H   0  0  0  0  0  0  0  0  0  0  0  0
  1  2  2  0
  2  3  1  0
  3  4  1  0
  4  5  1  0
  5  6  1  0
  6  7  1  0
  7  8  1  0
  8  9  2  0
  9 10  1  0
 10 11  2  0
 11 12  1  0
 12 13  2  0
 13 14  1  0
 14 15  2  0
  2 16  1  0
 16 17  1  0
 17 18  1  0
 18 19  2  0
 19 20  1  0
 20 21  2  0
 21 22  1  0
 22 23  2  0
 23 24  1  0
 24 25  2  0
 15  7  1  0
 25 17  1  0
 15 10  1  0
 25 20  1  0
  3 26  1  0
  4 27  1  0
  4 28  1  0
  5 29  1  0
  5 30  1  0
  6 31  1  0
  6 32  1  0
  8 33  1  0
  9 34  1  0
 11 35  1  0
 12 36  1  0
 13 37  1  0
 14 38  1  0
 16 39  1  0
 18 40  1  0
 21 41  1  0
 22 42  1  0
 23 43  1  0
 24 44  1  0
M  END
>  <Energy>  (700) 
289.51307661294447

>  <compound_id>  (700) 
8484

>  <target_id>  (700) 
1

>  <reference_id>  (700) 
103

>  <inspiration_ids>  (700) 
[40, 103]

>  <energy_score>  (700) 
324.67614329531847

>  <distance_score>  (700) 
5.101889863481983

>  <path>  (700) 
/opt/xchem-fragalysis-2/maxwin/BulkDock/SCRATCH/511017/C8484-P103/C8484-P103.minimised.mol

>  <scratch_subdir>  (700) 
/opt/xchem-fragalysis-2/maxwin/BulkDock/SCRATCH/511017/C8484-P103

>  <fragmenstein_runtime>  (700) 
7.318809270858765

>  <fragmenstein_outcome>  (700) 
too moved

>  <fragmenstein_mode>  (700) 
expansion

>  <fragmenstein_error>  (700) 


$$$$
C8485-P40
     RDKit          3D

 41 44  0  0  0  0  0  0  0  0999 V2000
   11.2676   -3.7630   22.6563 O   0  0  0  0  0  0  0  0  0  0  0  0
   11.1241   -4.2834   21.5929 C   0  0  0  0  0  0  0  0  0  0  0  0
    9.6018   -4.7186   20.7670 N   0  0  0  0  0  0  0  0  0  0  0  0
    7.6888   -4.3706   21.2646 C   0  0  0  0  0  0  0  0  0  0  0  0
    6.8208   -5.3319   22.8600 C   0  0  0  0  0  0  0  0  0  0  0  0
    6.0835   -4.8898   24.4024 C   0  0  0  0  0  0  0  0  0  0  0  0
    5.5668   -3.6833   24.9051 C   0  0  0  0  0  0  0  0  0  0  0  0
    5.0589   -3.8285   26.1582 N   0  0  0  0  0  0  0  0  0  0  0  0
    5.2704   -5.0998   26.5984 C   0  0  0  0  0  0  0  0  0  0  0  0
    5.0036   -5.6348   27.8649 C   0  0  0  0  0  0  0  0  0  0  0  0
    5.4329   -6.9320   28.1064 C   0  0  0  0  0  0  0  0  0  0  0  0
    6.0372   -7.6716   27.0952 C   0  0  0  0  0  0  0  0  0  0  0  0
    6.2273   -7.1402   25.8108 C   0  0  0  0  0  0  0  0  0  0  0  0
    5.8864   -5.8000   25.5475 C   0  0  0  0  0  0  0  0  0  0  0  0
   12.1168   -4.6495   20.5616 N   0  0  0  0  0  0  0  0  0  0  0  0
   13.4294   -4.4161   20.4910 N   0  0  0  0  0  0  0  0  0  0  0  0
   14.2299   -3.9927   21.5091 C   0  0  0  0  0  0  0  0  0  0  0  0
   15.2508   -3.2833   21.0631 N   0  0  0  0  0  0  0  0  0  0  0  0
   15.0439   -3.1583   19.7101 C   0  0  0  0  0  0  0  0  0  0  0  0
   15.7602   -2.4176   18.7540 C   0  0  0  0  0  0  0  0  0  0  0  0
   15.3155   -2.3936   17.4250 C   0  0  0  0  0  0  0  0  0  0  0  0
   14.1746   -3.0941   17.0478 C   0  0  0  0  0  0  0  0  0  0  0  0
   13.4488   -3.8341   17.9852 C   0  0  0  0  0  0  0  0  0  0  0  0
   13.9143   -3.8632   19.3136 C   0  0  0  0  0  0  0  0  0  0  0  0
    9.7995   -5.0703   19.8464 H   0  0  0  0  0  0  0  0  0  0  0  0
    7.2133   -4.5811   20.2626 H   0  0  0  0  0  0  0  0  0  0  0  0
    7.4681   -3.3015   21.3784 H   0  0  0  0  0  0  0  0  0  0  0  0
    7.2112   -6.2567   23.3115 H   0  0  0  0  0  0  0  0  0  0  0  0
    6.2407   -6.1766   22.4642 H   0  0  0  0  0  0  0  0  0  0  0  0
    5.5543   -2.6886   24.4803 H   0  0  0  0  0  0  0  0  0  0  0  0
    4.6894   -3.0745   26.7189 H   0  0  0  0  0  0  0  0  0  0  0  0
    4.5571   -5.0344   28.6496 H   0  0  0  0  0  0  0  0  0  0  0  0
    5.3321   -7.3629   29.0959 H   0  0  0  0  0  0  0  0  0  0  0  0
    6.3972   -8.6776   27.2989 H   0  0  0  0  0  0  0  0  0  0  0  0
    6.6989   -7.7474   25.0459 H   0  0  0  0  0  0  0  0  0  0  0  0
   11.6395   -4.9953   19.7548 H   0  0  0  0  0  0  0  0  0  0  0  0
   14.0064   -4.1902   22.5488 H   0  0  0  0  0  0  0  0  0  0  0  0
   16.6420   -1.8637   19.0576 H   0  0  0  0  0  0  0  0  0  0  0  0
   15.8712   -1.8221   16.6859 H   0  0  0  0  0  0  0  0  0  0  0  0
   13.8442   -3.0738   16.0117 H   0  0  0  0  0  0  0  0  0  0  0  0
   12.5613   -4.3714   17.6760 H   0  0  0  0  0  0  0  0  0  0  0  0
  1  2  2  0
  2  3  1  0
  3  4  1  0
  4  5  1  0
  5  6  1  0
  6  7  2  0
  7  8  1  0
  8  9  1  0
  9 10  2  0
 10 11  1  0
 11 12  2  0
 12 13  1  0
 13 14  2  0
  2 15  1  0
 15 16  1  0
 16 17  1  0
 17 18  2  0
 18 19  1  0
 19 20  2  0
 20 21  1  0
 21 22  2  0
 22 23  1  0
 23 24  2  0
 14  6  1  0
 24 16  1  0
 14  9  1  0
 24 19  1  0
  3 25  1  0
  4 26  1  0
  4 27  1  0
  5 28  1  0
  5 29  1  0
  7 30  1  0
  8 31  1  0
 10 32  1  0
 11 33  1  0
 12 34  1  0
 13 35  1  0
 15 36  1  0
 17 37  1  0
 20 38  1  0
 21 39  1  0
 22 40  1  0
 23 41  1  0
M  END
>  <Energy>  (701) 
224.1322724410303

>  <compound_id>  (701) 
8485

>  <target_id>  (701) 
1

>  <reference_id>  (701) 
40

>  <inspiration_ids>  (701) 
[40, 103]

>  <energy_score>  (701) 
239.24713159874568

>  <distance_score>  (701) 
6.029216828894775

>  <path>  (701) 
/opt/xchem-fragalysis-2/maxwin/BulkDock/SCRATCH/511017/C8485-P40/C8485-P40.minimised.mol

>  <scratch_subdir>  (701) 
/opt/xchem-fragalysis-2/maxwin/BulkDock/SCRATCH/511017/C8485-P40

>  <fragmenstein_runtime>  (701) 
6.375304460525513

>  <fragmenstein_outcome>  (701) 
too moved

>  <fragmenstein_mode>  (701) 
expansion

>  <fragmenstein_error>  (701) 


$$$$
C8485-P103
     RDKit          3D

 41 44  0  0  0  0  0  0  0  0999 V2000
   11.5111   -3.5998   22.3029 O   0  0  0  0  0  0  0  0  0  0  0  0
   11.1845   -3.5929   21.1665 C   0  0  0  0  0  0  0  0  0  0  0  0
    9.2222   -3.5889   20.6358 N   0  0  0  0  0  0  0  0  0  0  0  0
    7.7221   -3.7364   21.6757 C   0  0  0  0  0  0  0  0  0  0  0  0
    6.9278   -3.7904   23.5056 C   0  0  0  0  0  0  0  0  0  0  0  0
    5.6643   -2.5354   24.3829 C   0  0  0  0  0  0  0  0  0  0  0  0
    4.2898   -2.3430   24.2048 C   0  0  0  0  0  0  0  0  0  0  0  0
    3.6659   -1.7361   25.2670 N   0  0  0  0  0  0  0  0  0  0  0  0
    4.5205   -1.4518   26.2793 C   0  0  0  0  0  0  0  0  0  0  0  0
    4.2415   -0.9706   27.5660 C   0  0  0  0  0  0  0  0  0  0  0  0
    5.2980   -0.8811   28.4692 C   0  0  0  0  0  0  0  0  0  0  0  0
    6.5856   -1.2429   28.0863 C   0  0  0  0  0  0  0  0  0  0  0  0
    6.8491   -1.7043   26.7860 C   0  0  0  0  0  0  0  0  0  0  0  0
    5.7905   -1.8235   25.8269 C   0  0  0  0  0  0  0  0  0  0  0  0
   12.3260   -3.4845   19.9024 N   0  0  0  0  0  0  0  0  0  0  0  0
   13.6449   -3.3077   19.9161 N   0  0  0  0  0  0  0  0  0  0  0  0
   14.3775   -2.7420   20.9117 C   0  0  0  0  0  0  0  0  0  0  0  0
   15.4715   -2.1771   20.4356 N   0  0  0  0  0  0  0  0  0  0  0  0
   15.3909   -2.3225   19.0714 C   0  0  0  0  0  0  0  0  0  0  0  0
   16.2216   -1.8103   18.0645 C   0  0  0  0  0  0  0  0  0  0  0  0
   15.8843   -2.0355   16.7250 C   0  0  0  0  0  0  0  0  0  0  0  0
   14.7507   -2.7720   16.3901 C   0  0  0  0  0  0  0  0  0  0  0  0
   13.9245   -3.3195   17.3746 C   0  0  0  0  0  0  0  0  0  0  0  0
   14.2724   -3.0652   18.7120 C   0  0  0  0  0  0  0  0  0  0  0  0
    9.1431   -3.6729   19.7173 H   0  0  0  0  0  0  0  0  0  0  0  0
    7.8746   -4.8236   21.7213 H   0  0  0  0  0  0  0  0  0  0  0  0
    6.8675   -3.3249   21.1031 H   0  0  0  0  0  0  0  0  0  0  0  0
    7.5470   -3.6588   24.3541 H   0  0  0  0  0  0  0  0  0  0  0  0
    6.6758   -4.8404   23.6048 H   0  0  0  0  0  0  0  0  0  0  0  0
    3.5900   -2.6882   23.4709 H   0  0  0  0  0  0  0  0  0  0  0  0
    2.6611   -1.6465   25.3139 H   0  0  0  0  0  0  0  0  0  0  0  0
    3.2297   -0.7150   27.8606 H   0  0  0  0  0  0  0  0  0  0  0  0
    5.1130   -0.5324   29.4810 H   0  0  0  0  0  0  0  0  0  0  0  0
    7.4010   -1.1842   28.8015 H   0  0  0  0  0  0  0  0  0  0  0  0
    7.8438   -2.0425   26.5130 H   0  0  0  0  0  0  0  0  0  0  0  0
   11.8505   -3.5795   19.0393 H   0  0  0  0  0  0  0  0  0  0  0  0
   14.0549   -2.7307   21.9451 H   0  0  0  0  0  0  0  0  0  0  0  0
   17.0949   -1.2246   18.3312 H   0  0  0  0  0  0  0  0  0  0  0  0
   16.5128   -1.6221   15.9393 H   0  0  0  0  0  0  0  0  0  0  0  0
   14.5040   -2.9040   15.3411 H   0  0  0  0  0  0  0  0  0  0  0  0
   13.0393   -3.8845   17.1038 H   0  0  0  0  0  0  0  0  0  0  0  0
  1  2  2  0
  2  3  1  0
  3  4  1  0
  4  5  1  0
  5  6  1  0
  6  7  2  0
  7  8  1  0
  8  9  1  0
  9 10  2  0
 10 11  1  0
 11 12  2  0
 12 13  1  0
 13 14  2  0
  2 15  1  0
 15 16  1  0
 16 17  1  0
 17 18  2  0
 18 19  1  0
 19 20  2  0
 20 21  1  0
 21 22  2  0
 22 23  1  0
 23 24  2  0
 14  6  1  0
 24 16  1  0
 14  9  1  0
 24 19  1  0
  3 25  1  0
  4 26  1  0
  4 27  1  0
  5 28  1  0
  5 29  1  0
  7 30  1  0
  8 31  1  0
 10 32  1  0
 11 33  1  0
 12 34  1  0
 13 35  1  0
 15 36  1  0
 17 37  1  0
 20 38  1  0
 21 39  1  0
 22 40  1  0
 23 41  1  0
M  END
>  <Energy>  (702) 
363.72186020664094

>  <compound_id>  (702) 
8485

>  <target_id>  (702) 
1

>  <reference_id>  (702) 
103

>  <inspiration_ids>  (702) 
[40, 103]

>  <energy_score>  (702) 
378.83671936435496

>  <distance_score>  (702) 
6.128839160353035

>  <path>  (702) 
/opt/xchem-fragalysis-2/maxwin/BulkDock/SCRATCH/511017/C8485-P103/C8485-P103.minimised.mol

>  <scratch_subdir>  (702) 
/opt/xchem-fragalysis-2/maxwin/BulkDock/SCRATCH/511017/C8485-P103

>  <fragmenstein_runtime>  (702) 
6.659965515136719

>  <fragmenstein_outcome>  (702) 
too moved

>  <fragmenstein_mode>  (702) 
expansion

>  <fragmenstein_error>  (702) 


$$$$
C8486-P40
     RDKit          3D

 52 56  0  0  0  0  0  0  0  0999 V2000
   10.9543   -4.9185   25.0765 O   0  0  0  0  0  0  0  0  0  0  0  0
   11.2648   -3.8629   25.5624 C   0  0  0  0  0  0  0  0  0  0  0  0
   12.2137   -2.8952   24.7788 C   0  0  0  0  0  0  0  0  0  0  0  0
   12.6555   -3.4519   23.3935 C   0  0  0  0  0  0  0  0  0  0  0  0
   13.5264   -2.6679   22.5214 N   0  0  0  0  0  0  0  0  0  0  0  0
   14.1143   -1.4587   22.7787 C   0  0  0  0  0  0  0  0  0  0  0  0
   14.7619   -0.9814   21.7356 N   0  0  0  0  0  0  0  0  0  0  0  0
   14.6012   -1.9201   20.7506 C   0  0  0  0  0  0  0  0  0  0  0  0
   15.0487   -1.9000   19.4178 C   0  0  0  0  0  0  0  0  0  0  0  0
   14.6981   -2.9534   18.5689 C   0  0  0  0  0  0  0  0  0  0  0  0
   13.9397   -4.0180   19.0496 C   0  0  0  0  0  0  0  0  0  0  0  0
   13.5071   -4.0716   20.3817 C   0  0  0  0  0  0  0  0  0  0  0  0
   13.8419   -2.9952   21.2113 C   0  0  0  0  0  0  0  0  0  0  0  0
   10.9797   -3.3111   26.8675 N   0  0  0  0  0  0  0  0  0  0  0  0
   10.3027   -3.9254   28.0713 C   0  0  0  0  0  0  0  0  0  0  0  0
    9.1976   -5.0070   27.8754 C   0  0  0  0  0  0  0  0  0  0  0  0
    8.1040   -4.4753   26.9702 C   0  0  0  0  0  0  0  0  0  0  0  0
    6.6996   -5.0649   27.1089 C   0  0  0  0  0  0  0  0  0  0  0  0
    6.1474   -5.9024   26.1515 C   0  0  0  0  0  0  0  0  0  0  0  0
    4.8474   -6.1721   26.4677 N   0  0  0  0  0  0  0  0  0  0  0  0
    4.5035   -5.5394   27.6370 C   0  0  0  0  0  0  0  0  0  0  0  0
    3.2702   -5.5040   28.3085 C   0  0  0  0  0  0  0  0  0  0  0  0
    3.1871   -4.7607   29.4861 C   0  0  0  0  0  0  0  0  0  0  0  0
    4.3040   -4.0928   29.9764 C   0  0  0  0  0  0  0  0  0  0  0  0
    5.5299   -4.1368   29.2908 C   0  0  0  0  0  0  0  0  0  0  0  0
    5.6481   -4.8621   28.0850 C   0  0  0  0  0  0  0  0  0  0  0  0
    8.2031   -2.9736   27.1021 C   0  0  0  0  0  0  0  0  0  0  0  0
    9.6625   -2.4877   26.8271 C   0  0  0  0  0  0  0  0  0  0  0  0
   11.6987   -1.9385   24.6526 H   0  0  0  0  0  0  0  0  0  0  0  0
   13.1017   -2.7223   25.3982 H   0  0  0  0  0  0  0  0  0  0  0  0
   13.1776   -4.4047   23.5479 H   0  0  0  0  0  0  0  0  0  0  0  0
   11.7597   -3.6673   22.8012 H   0  0  0  0  0  0  0  0  0  0  0  0
   14.0189   -0.9543   23.7308 H   0  0  0  0  0  0  0  0  0  0  0  0
   15.6401   -1.0648   19.0605 H   0  0  0  0  0  0  0  0  0  0  0  0
   15.0239   -2.9480   17.5325 H   0  0  0  0  0  0  0  0  0  0  0  0
   13.6733   -4.8283   18.3757 H   0  0  0  0  0  0  0  0  0  0  0  0
   12.8983   -4.8987   20.7297 H   0  0  0  0  0  0  0  0  0  0  0  0
   11.1345   -4.4958   28.5138 H   0  0  0  0  0  0  0  0  0  0  0  0
   10.0863   -3.2017   28.8774 H   0  0  0  0  0  0  0  0  0  0  0  0
    9.6300   -5.9180   27.4438 H   0  0  0  0  0  0  0  0  0  0  0  0
    8.8022   -5.2842   28.8601 H   0  0  0  0  0  0  0  0  0  0  0  0
    8.4247   -4.7328   25.9548 H   0  0  0  0  0  0  0  0  0  0  0  0
    6.5678   -6.2943   25.2338 H   0  0  0  0  0  0  0  0  0  0  0  0
    4.2332   -6.7343   25.8948 H   0  0  0  0  0  0  0  0  0  0  0  0
    2.4024   -6.0187   27.9141 H   0  0  0  0  0  0  0  0  0  0  0  0
    2.2433   -4.6923   30.0209 H   0  0  0  0  0  0  0  0  0  0  0  0
    4.2292   -3.5119   30.8929 H   0  0  0  0  0  0  0  0  0  0  0  0
    6.3829   -3.5930   29.6850 H   0  0  0  0  0  0  0  0  0  0  0  0
    7.4975   -2.4418   26.4549 H   0  0  0  0  0  0  0  0  0  0  0  0
    7.9227   -2.6645   28.1185 H   0  0  0  0  0  0  0  0  0  0  0  0
    9.8517   -1.5936   27.4452 H   0  0  0  0  0  0  0  0  0  0  0  0
    9.6377   -2.0737   25.8096 H   0  0  0  0  0  0  0  0  0  0  0  0
  1  2  2  0
  2  3  1  0
  3  4  1  0
  4  5  1  0
  5  6  1  0
  6  7  2  0
  7  8  1  0
  8  9  2  0
  9 10  1  0
 10 11  2  0
 11 12  1  0
 12 13  2  0
  2 14  1  0
 14 15  1  0
 15 16  1  0
 16 17  1  0
 17 18  1  0
 18 19  2  0
 19 20  1  0
 20 21  1  0
 21 22  2  0
 22 23  1  0
 23 24  2  0
 24 25  1  0
 25 26  2  0
 17 27  1  0
 27 28  1  0
 13  5  1  0
 28 14  1  0
 13  8  1  0
 26 18  1  0
 26 21  1  0
  3 29  1  0
  3 30  1  0
  4 31  1  0
  4 32  1  0
  6 33  1  0
  9 34  1  0
 10 35  1  0
 11 36  1  0
 12 37  1  0
 15 38  1  0
 15 39  1  0
 16 40  1  0
 16 41  1  0
 17 42  1  0
 19 43  1  0
 20 44  1  0
 22 45  1  0
 23 46  1  0
 24 47  1  0
 25 48  1  0
 27 49  1  0
 27 50  1  0
 28 51  1  0
 28 52  1  0
M  END
>  <Energy>  (703) 
92.925905911385186

>  <compound_id>  (703) 
8486

>  <target_id>  (703) 
1

>  <reference_id>  (703) 
40

>  <inspiration_ids>  (703) 
[40, 103]

>  <energy_score>  (703) 
41.984542813544635

>  <distance_score>  (703) 
5.3480404164440225

>  <path>  (703) 
/opt/xchem-fragalysis-2/maxwin/BulkDock/SCRATCH/511017/C8486-P40/C8486-P40.minimised.mol

>  <scratch_subdir>  (703) 
/opt/xchem-fragalysis-2/maxwin/BulkDock/SCRATCH/511017/C8486-P40

>  <fragmenstein_runtime>  (703) 
10.503281354904175

>  <fragmenstein_outcome>  (703) 
too moved

>  <fragmenstein_mode>  (703) 
expansion

>  <fragmenstein_error>  (703) 


$$$$
C8486-P103
     RDKit          3D

 52 56  0  0  0  0  0  0  0  0999 V2000
    9.7373   -5.6714   19.6375 O   0  0  0  0  0  0  0  0  0  0  0  0
    9.1048   -4.7716   20.1547 C   0  0  0  0  0  0  0  0  0  0  0  0
    9.3505   -3.3667   20.2222 C   0  0  0  0  0  0  0  0  0  0  0  0
   11.3389   -3.6416   20.9568 C   0  0  0  0  0  0  0  0  0  0  0  0
   12.4611   -4.6323   20.5269 N   0  0  0  0  0  0  0  0  0  0  0  0
   13.2456   -5.2432   21.4843 C   0  0  0  0  0  0  0  0  0  0  0  0
   14.4544   -5.5244   21.0620 N   0  0  0  0  0  0  0  0  0  0  0  0
   14.5374   -4.9899   19.8089 C   0  0  0  0  0  0  0  0  0  0  0  0
   15.6504   -4.9199   18.9519 C   0  0  0  0  0  0  0  0  0  0  0  0
   15.5271   -4.3158   17.6973 C   0  0  0  0  0  0  0  0  0  0  0  0
   14.3065   -3.7991   17.2928 C   0  0  0  0  0  0  0  0  0  0  0  0
   13.1922   -3.8596   18.1351 C   0  0  0  0  0  0  0  0  0  0  0  0
   13.3167   -4.4570   19.4071 C   0  0  0  0  0  0  0  0  0  0  0  0
    8.0174   -4.7512   20.9329 N   0  0  0  0  0  0  0  0  0  0  0  0
    7.0799   -6.1133   21.7113 C   0  0  0  0  0  0  0  0  0  0  0  0
    6.7509   -5.7798   23.2484 C   0  0  0  0  0  0  0  0  0  0  0  0
    6.7197   -3.8595   23.2139 C   0  0  0  0  0  0  0  0  0  0  0  0
    6.0018   -2.6330   24.6122 C   0  0  0  0  0  0  0  0  0  0  0  0
    7.0803   -2.1900   25.6645 C   0  0  0  0  0  0  0  0  0  0  0  0
    6.5774   -1.4536   26.6814 N   0  0  0  0  0  0  0  0  0  0  0  0
    5.2229   -1.3825   26.5962 C   0  0  0  0  0  0  0  0  0  0  0  0
    4.4120   -0.8738   27.6267 C   0  0  0  0  0  0  0  0  0  0  0  0
    3.1117   -1.2951   27.6816 C   0  0  0  0  0  0  0  0  0  0  0  0
    2.6796   -2.1344   26.6853 C   0  0  0  0  0  0  0  0  0  0  0  0
    3.4613   -2.4567   25.5298 C   0  0  0  0  0  0  0  0  0  0  0  0
    4.7955   -2.0890   25.4253 C   0  0  0  0  0  0  0  0  0  0  0  0
    6.0891   -3.2536   21.3366 C   0  0  0  0  0  0  0  0  0  0  0  0
    6.4662   -4.5763   19.8224 C   0  0  0  0  0  0  0  0  0  0  0  0
    8.7257   -3.8970   19.5337 H   0  0  0  0  0  0  0  0  0  0  0  0
    8.9507   -2.1613   19.3915 H   0  0  0  0  0  0  0  0  0  0  0  0
   11.9853   -2.9027   20.4790 H   0  0  0  0  0  0  0  0  0  0  0  0
   11.4868   -3.5665   22.0457 H   0  0  0  0  0  0  0  0  0  0  0  0
   12.8999   -5.4025   22.4963 H   0  0  0  0  0  0  0  0  0  0  0  0
   16.5989   -5.3340   19.2780 H   0  0  0  0  0  0  0  0  0  0  0  0
   16.3893   -4.2616   17.0378 H   0  0  0  0  0  0  0  0  0  0  0  0
   14.2126   -3.3411   16.3109 H   0  0  0  0  0  0  0  0  0  0  0  0
   12.2622   -3.4562   17.7705 H   0  0  0  0  0  0  0  0  0  0  0  0
    7.8480   -5.7379   22.3534 H   0  0  0  0  0  0  0  0  0  0  0  0
    6.9008   -7.0910   21.3104 H   0  0  0  0  0  0  0  0  0  0  0  0
    7.5726   -6.3473   23.7119 H   0  0  0  0  0  0  0  0  0  0  0  0
    5.8752   -6.3181   23.6254 H   0  0  0  0  0  0  0  0  0  0  0  0
    7.6770   -3.8391   23.4397 H   0  0  0  0  0  0  0  0  0  0  0  0
    8.1280   -2.4580   25.6905 H   0  0  0  0  0  0  0  0  0  0  0  0
    7.1145   -1.1200   27.4657 H   0  0  0  0  0  0  0  0  0  0  0  0
    4.8400   -0.3135   28.4513 H   0  0  0  0  0  0  0  0  0  0  0  0
    2.4680   -1.0346   28.5131 H   0  0  0  0  0  0  0  0  0  0  0  0
    1.6897   -2.5503   26.8173 H   0  0  0  0  0  0  0  0  0  0  0  0
    3.1067   -3.1238   24.7687 H   0  0  0  0  0  0  0  0  0  0  0  0
    7.0959   -3.1657   21.1122 H   0  0  0  0  0  0  0  0  0  0  0  0
    5.6388   -2.2963   21.2752 H   0  0  0  0  0  0  0  0  0  0  0  0
    5.3665   -4.5322   19.6859 H   0  0  0  0  0  0  0  0  0  0  0  0
    6.7422   -5.5232   19.3780 H   0  0  0  0  0  0  0  0  0  0  0  0
  1  2  2  0
  2  3  1  0
  3  4  1  0
  4  5  1  0
  5  6  1  0
  6  7  2  0
  7  8  1  0
  8  9  2  0
  9 10  1  0
 10 11  2  0
 11 12  1  0
 12 13  2  0
  2 14  1  0
 14 15  1  0
 15 16  1  0
 16 17  1  0
 17 18  1  0
 18 19  2  0
 19 20  1  0
 20 21  1  0
 21 22  2  0
 22 23  1  0
 23 24  2  0
 24 25  1  0
 25 26  2  0
 17 27  1  0
 27 28  1  0
 13  5  1  0
 28 14  1  0
 13  8  1  0
 26 18  1  0
 26 21  1  0
  3 29  1  0
  3 30  1  0
  4 31  1  0
  4 32  1  0
  6 33  1  0
  9 34  1  0
 10 35  1  0
 11 36  1  0
 12 37  1  0
 15 38  1  0
 15 39  1  0
 16 40  1  0
 16 41  1  0
 17 42  1  0
 19 43  1  0
 20 44  1  0
 22 45  1  0
 23 46  1  0
 24 47  1  0
 25 48  1  0
 27 49  1  0
 27 50  1  0
 28 51  1  0
 28 52  1  0
M  END
>  <Energy>  (704) 
917.71028340884288

>  <compound_id>  (704) 
8486

>  <target_id>  (704) 
1

>  <reference_id>  (704) 
103

>  <inspiration_ids>  (704) 
[40, 103]

>  <energy_score>  (704) 
866.7689203109867

>  <distance_score>  (704) 
6.426366858942734

>  <path>  (704) 
/opt/xchem-fragalysis-2/maxwin/BulkDock/SCRATCH/511017/C8486-P103/C8486-P103.minimised.mol

>  <scratch_subdir>  (704) 
/opt/xchem-fragalysis-2/maxwin/BulkDock/SCRATCH/511017/C8486-P103

>  <fragmenstein_runtime>  (704) 
8.981089115142822

>  <fragmenstein_outcome>  (704) 
too moved

>  <fragmenstein_mode>  (704) 
expansion

>  <fragmenstein_error>  (704) 


$$$$
C8487-P40
     RDKit          3D

 52 56  0  0  0  0  0  0  0  0999 V2000
   14.0419   -5.4752   20.6223 C   0  0  0  0  0  0  0  0  0  0  0  0
   13.3240   -4.3013   21.2982 C   0  0  0  0  0  0  0  0  0  0  0  0
   12.3348   -4.7708   22.4268 C   0  0  0  0  0  0  0  0  0  0  0  0
   12.3932   -4.2150   23.4932 O   0  0  0  0  0  0  0  0  0  0  0  0
   11.5436   -5.9365   21.9969 N   0  0  0  0  0  0  0  0  0  0  0  0
   10.4337   -7.1278   23.0202 C   0  0  0  0  0  0  0  0  0  0  0  0
    8.9663   -6.9179   24.4142 C   0  0  0  0  0  0  0  0  0  0  0  0
    7.1742   -6.2779   23.5950 C   0  0  0  0  0  0  0  0  0  0  0  0
    6.3383   -5.7454   24.8483 C   0  0  0  0  0  0  0  0  0  0  0  0
    5.7437   -4.5233   25.0879 C   0  0  0  0  0  0  0  0  0  0  0  0
    5.2021   -4.4567   26.3356 N   0  0  0  0  0  0  0  0  0  0  0  0
    5.4864   -5.6045   27.0102 C   0  0  0  0  0  0  0  0  0  0  0  0
    5.2886   -5.8948   28.3604 C   0  0  0  0  0  0  0  0  0  0  0  0
    5.7919   -7.1071   28.8097 C   0  0  0  0  0  0  0  0  0  0  0  0
    6.3436   -8.0309   27.9311 C   0  0  0  0  0  0  0  0  0  0  0  0
    6.4609   -7.7450   26.5666 C   0  0  0  0  0  0  0  0  0  0  0  0
    6.1094   -6.4663   26.0960 C   0  0  0  0  0  0  0  0  0  0  0  0
    7.6206   -5.0399   21.9642 C   0  0  0  0  0  0  0  0  0  0  0  0
    9.8154   -5.3021   21.2328 C   0  0  0  0  0  0  0  0  0  0  0  0
   13.5353   -3.0479   20.5510 N   0  0  0  0  0  0  0  0  0  0  0  0
   14.2283   -1.9759   21.0952 C   0  0  0  0  0  0  0  0  0  0  0  0
   14.8788   -1.2806   20.1883 N   0  0  0  0  0  0  0  0  0  0  0  0
   14.6234   -1.9016   18.9937 C   0  0  0  0  0  0  0  0  0  0  0  0
   15.0806   -1.5751   17.7024 C   0  0  0  0  0  0  0  0  0  0  0  0
   14.5946   -2.2860   16.6000 C   0  0  0  0  0  0  0  0  0  0  0  0
   13.6740   -3.3108   16.7798 C   0  0  0  0  0  0  0  0  0  0  0  0
   13.2302   -3.6576   18.0598 C   0  0  0  0  0  0  0  0  0  0  0  0
   13.7257   -2.9520   19.1645 C   0  0  0  0  0  0  0  0  0  0  0  0
   15.0870   -5.2304   20.3922 H   0  0  0  0  0  0  0  0  0  0  0  0
   13.5613   -5.7024   19.6791 H   0  0  0  0  0  0  0  0  0  0  0  0
   14.0599   -6.3655   21.2589 H   0  0  0  0  0  0  0  0  0  0  0  0
   14.1356   -4.1186   22.0379 H   0  0  0  0  0  0  0  0  0  0  0  0
   10.5500   -8.1122   22.5300 H   0  0  0  0  0  0  0  0  0  0  0  0
   11.2144   -7.2614   23.7994 H   0  0  0  0  0  0  0  0  0  0  0  0
    9.3259   -6.2051   25.1830 H   0  0  0  0  0  0  0  0  0  0  0  0
    8.8016   -7.8881   24.9132 H   0  0  0  0  0  0  0  0  0  0  0  0
    6.5699   -7.0719   23.2034 H   0  0  0  0  0  0  0  0  0  0  0  0
    5.7215   -3.6155   24.5168 H   0  0  0  0  0  0  0  0  0  0  0  0
    4.8034   -3.6239   26.7446 H   0  0  0  0  0  0  0  0  0  0  0  0
    4.8600   -5.1707   29.0437 H   0  0  0  0  0  0  0  0  0  0  0  0
    5.7872   -7.3337   29.8639 H   0  0  0  0  0  0  0  0  0  0  0  0
    6.7074   -8.9842   28.3099 H   0  0  0  0  0  0  0  0  0  0  0  0
    6.8890   -8.4820   25.8952 H   0  0  0  0  0  0  0  0  0  0  0  0
    6.8873   -5.6703   21.4263 H   0  0  0  0  0  0  0  0  0  0  0  0
    7.1853   -4.0612   22.2135 H   0  0  0  0  0  0  0  0  0  0  0  0
   10.0444   -6.3092   20.7494 H   0  0  0  0  0  0  0  0  0  0  0  0
    9.8740   -5.0444   20.2111 H   0  0  0  0  0  0  0  0  0  0  0  0
   14.2425   -1.7916   22.1635 H   0  0  0  0  0  0  0  0  0  0  0  0
   15.7800   -0.7560   17.5745 H   0  0  0  0  0  0  0  0  0  0  0  0
   14.9373   -2.0315   15.6009 H   0  0  0  0  0  0  0  0  0  0  0  0
   13.3000   -3.8655   15.9213 H   0  0  0  0  0  0  0  0  0  0  0  0
   12.5079   -4.4497   18.1770 H   0  0  0  0  0  0  0  0  0  0  0  0
  1  2  1  0
  2  3  1  0
  3  4  2  0
  3  5  1  0
  5  6  1  0
  6  7  1  0
  7  8  1  0
  8  9  1  0
  9 10  2  0
 10 11  1  0
 11 12  1  0
 12 13  2  0
 13 14  1  0
 14 15  2  0
 15 16  1  0
 16 17  2  0
  8 18  1  0
 18 19  1  0
  2 20  1  0
 20 21  1  0
 21 22  2  0
 22 23  1  0
 23 24  2  0
 24 25  1  0
 25 26  2  0
 26 27  1  0
 27 28  2  0
 19  5  1  0
 28 20  1  0
 17  9  1  0
 28 23  1  0
 17 12  1  0
  1 29  1  0
  1 30  1  0
  1 31  1  0
  2 32  1  0
  6 33  1  0
  6 34  1  0
  7 35  1  0
  7 36  1  0
  8 37  1  0
 10 38  1  0
 11 39  1  0
 13 40  1  0
 14 41  1  0
 15 42  1  0
 16 43  1  0
 18 44  1  0
 18 45  1  0
 19 46  1  0
 19 47  1  0
 21 48  1  0
 24 49  1  0
 25 50  1  0
 26 51  1  0
 27 52  1  0
M  END
>  <Energy>  (705) 
706.89293758535325

>  <compound_id>  (705) 
8487

>  <target_id>  (705) 
1

>  <reference_id>  (705) 
40

>  <inspiration_ids>  (705) 
[40, 103]

>  <energy_score>  (705) 
629.2029639106858

>  <distance_score>  (705) 
5.44807936192747

>  <path>  (705) 
/opt/xchem-fragalysis-2/maxwin/BulkDock/SCRATCH/511017/C8487-P40/C8487-P40.minimised.mol

>  <scratch_subdir>  (705) 
/opt/xchem-fragalysis-2/maxwin/BulkDock/SCRATCH/511017/C8487-P40

>  <fragmenstein_runtime>  (705) 
7.237294912338257

>  <fragmenstein_outcome>  (705) 
too moved

>  <fragmenstein_mode>  (705) 
expansion

>  <fragmenstein_error>  (705) 


$$$$
C8487-P103
     RDKit          3D

 52 56  0  0  0  0  0  0  0  0999 V2000
   11.3451    0.7066   26.0112 C   0  0  0  0  0  0  0  0  0  0  0  0
   11.6761   -0.7600   25.6853 C   0  0  0  0  0  0  0  0  0  0  0  0
   11.4186   -1.5990   26.9798 C   0  0  0  0  0  0  0  0  0  0  0  0
   11.9046   -1.2939   28.0378 O   0  0  0  0  0  0  0  0  0  0  0  0
   10.5317   -2.6801   26.6349 N   0  0  0  0  0  0  0  0  0  0  0  0
   10.0190   -3.8425   27.4619 C   0  0  0  0  0  0  0  0  0  0  0  0
    9.3467   -3.8157   28.8561 C   0  0  0  0  0  0  0  0  0  0  0  0
    7.9442   -3.2740   28.6487 C   0  0  0  0  0  0  0  0  0  0  0  0
    6.9299   -3.3928   29.7612 C   0  0  0  0  0  0  0  0  0  0  0  0
    7.1399   -3.9240   31.0192 C   0  0  0  0  0  0  0  0  0  0  0  0
    5.9386   -4.0258   31.6694 N   0  0  0  0  0  0  0  0  0  0  0  0
    4.9144   -3.6049   30.8604 C   0  0  0  0  0  0  0  0  0  0  0  0
    3.5306   -3.5972   31.0952 C   0  0  0  0  0  0  0  0  0  0  0  0
    2.7007   -3.0941   30.0929 C   0  0  0  0  0  0  0  0  0  0  0  0
    3.2423   -2.6063   28.9095 C   0  0  0  0  0  0  0  0  0  0  0  0
    4.6309   -2.6231   28.6941 C   0  0  0  0  0  0  0  0  0  0  0  0
    5.4995   -3.1457   29.6785 C   0  0  0  0  0  0  0  0  0  0  0  0
    8.2672   -1.9199   28.0636 C   0  0  0  0  0  0  0  0  0  0  0  0
    9.0565   -2.2230   26.7648 C   0  0  0  0  0  0  0  0  0  0  0  0
   12.9650   -0.9445   24.9715 N   0  0  0  0  0  0  0  0  0  0  0  0
   13.8493    0.0764   24.6856 C   0  0  0  0  0  0  0  0  0  0  0  0
   14.6296   -0.1871   23.6627 N   0  0  0  0  0  0  0  0  0  0  0  0
   14.2909   -1.4560   23.2777 C   0  0  0  0  0  0  0  0  0  0  0  0
   14.7826   -2.2093   22.1941 C   0  0  0  0  0  0  0  0  0  0  0  0
   14.2825   -3.4962   21.9777 C   0  0  0  0  0  0  0  0  0  0  0  0
   13.3253   -4.0285   22.8412 C   0  0  0  0  0  0  0  0  0  0  0  0
   12.8171   -3.2908   23.9263 C   0  0  0  0  0  0  0  0  0  0  0  0
   13.3059   -1.9894   24.1183 C   0  0  0  0  0  0  0  0  0  0  0  0
   11.3498    1.3260   25.1076 H   0  0  0  0  0  0  0  0  0  0  0  0
   10.3506    0.7912   26.4631 H   0  0  0  0  0  0  0  0  0  0  0  0
   12.0593    1.1312   26.7254 H   0  0  0  0  0  0  0  0  0  0  0  0
   10.9428   -1.0645   24.9368 H   0  0  0  0  0  0  0  0  0  0  0  0
    9.5008   -4.5491   26.7977 H   0  0  0  0  0  0  0  0  0  0  0  0
   10.9669   -4.3667   27.6618 H   0  0  0  0  0  0  0  0  0  0  0  0
    9.9303   -3.2147   29.5642 H   0  0  0  0  0  0  0  0  0  0  0  0
    9.3086   -4.8385   29.2503 H   0  0  0  0  0  0  0  0  0  0  0  0
    7.4922   -3.8932   27.8669 H   0  0  0  0  0  0  0  0  0  0  0  0
    8.0457   -4.2626   31.5043 H   0  0  0  0  0  0  0  0  0  0  0  0
    5.8125   -4.3797   32.6075 H   0  0  0  0  0  0  0  0  0  0  0  0
    3.1104   -3.9708   32.0243 H   0  0  0  0  0  0  0  0  0  0  0  0
    1.6238   -3.0777   30.2408 H   0  0  0  0  0  0  0  0  0  0  0  0
    2.5899   -2.2182   28.1289 H   0  0  0  0  0  0  0  0  0  0  0  0
    5.0250   -2.2612   27.7474 H   0  0  0  0  0  0  0  0  0  0  0  0
    7.3497   -1.3776   27.8096 H   0  0  0  0  0  0  0  0  0  0  0  0
    8.8439   -1.2843   28.7457 H   0  0  0  0  0  0  0  0  0  0  0  0
    9.0666   -1.2504   26.2588 H   0  0  0  0  0  0  0  0  0  0  0  0
    8.4310   -2.8206   26.0906 H   0  0  0  0  0  0  0  0  0  0  0  0
   13.8573    1.0117   25.2287 H   0  0  0  0  0  0  0  0  0  0  0  0
   15.5311   -1.7787   21.5396 H   0  0  0  0  0  0  0  0  0  0  0  0
   14.6468   -4.0808   21.1387 H   0  0  0  0  0  0  0  0  0  0  0  0
   12.9507   -5.0319   22.6639 H   0  0  0  0  0  0  0  0  0  0  0  0
   12.0497   -3.7076   24.5687 H   0  0  0  0  0  0  0  0  0  0  0  0
  1  2  1  0
  2  3  1  0
  3  4  2  0
  3  5  1  0
  5  6  1  0
  6  7  1  0
  7  8  1  0
  8  9  1  0
  9 10  2  0
 10 11  1  0
 11 12  1  0
 12 13  2  0
 13 14  1  0
 14 15  2  0
 15 16  1  0
 16 17  2  0
  8 18  1  0
 18 19  1  0
  2 20  1  0
 20 21  1  0
 21 22  2  0
 22 23  1  0
 23 24  2  0
 24 25  1  0
 25 26  2  0
 26 27  1  0
 27 28  2  0
 19  5  1  0
 28 20  1  0
 17  9  1  0
 28 23  1  0
 17 12  1  0
  1 29  1  0
  1 30  1  0
  1 31  1  0
  2 32  1  0
  6 33  1  0
  6 34  1  0
  7 35  1  0
  7 36  1  0
  8 37  1  0
 10 38  1  0
 11 39  1  0
 13 40  1  0
 14 41  1  0
 15 42  1  0
 16 43  1  0
 18 44  1  0
 18 45  1  0
 19 46  1  0
 19 47  1  0
 21 48  1  0
 24 49  1  0
 25 50  1  0
 26 51  1  0
 27 52  1  0
M  END
>  <Energy>  (706) 
128.06594356209067

>  <compound_id>  (706) 
8487

>  <target_id>  (706) 
1

>  <reference_id>  (706) 
103

>  <inspiration_ids>  (706) 
[40, 103]

>  <energy_score>  (706) 
50.37596988742109

>  <distance_score>  (706) 
6.897296265015131

>  <path>  (706) 
/opt/xchem-fragalysis-2/maxwin/BulkDock/SCRATCH/511017/C8487-P103/C8487-P103.minimised.mol

>  <scratch_subdir>  (706) 
/opt/xchem-fragalysis-2/maxwin/BulkDock/SCRATCH/511017/C8487-P103

>  <fragmenstein_runtime>  (706) 
11.714447259902954

>  <fragmenstein_outcome>  (706) 
too moved

>  <fragmenstein_mode>  (706) 
expansion

>  <fragmenstein_error>  (706) 


$$$$
C8489-P40
     RDKit          3D

 49 52  0  0  0  0  0  0  0  0999 V2000
    0.9753   -5.6843   29.7173 C   0  0  0  0  0  0  0  0  0  0  0  0
    2.1096   -6.0804   28.9526 O   0  0  0  0  0  0  0  0  0  0  0  0
    3.1671   -5.1999   28.9291 C   0  0  0  0  0  0  0  0  0  0  0  0
    3.2019   -3.9808   29.6198 C   0  0  0  0  0  0  0  0  0  0  0  0
    4.3091   -3.1376   29.5305 C   0  0  0  0  0  0  0  0  0  0  0  0
    5.4232   -3.4724   28.7532 C   0  0  0  0  0  0  0  0  0  0  0  0
    5.4096   -4.6934   28.0653 C   0  0  0  0  0  0  0  0  0  0  0  0
    4.2985   -5.5527   28.1459 C   0  0  0  0  0  0  0  0  0  0  0  0
    4.5882   -6.6641   27.3127 C   0  0  0  0  0  0  0  0  0  0  0  0
    5.8425   -6.4890   26.7792 C   0  0  0  0  0  0  0  0  0  0  0  0
    6.3389   -5.2750   27.2058 N   0  0  0  0  0  0  0  0  0  0  0  0
    7.4686   -4.6176   26.5290 C   0  0  0  0  0  0  0  0  0  0  0  0
    8.8967   -4.7676   27.0792 C   0  0  0  0  0  0  0  0  0  0  0  0
   10.0702   -4.7345   26.0127 C   0  0  0  0  0  0  0  0  0  0  0  0
   10.4610   -5.7910   25.5972 O   0  0  0  0  0  0  0  0  0  0  0  0
   10.5551   -3.3900   25.7773 N   0  0  0  0  0  0  0  0  0  0  0  0
   11.7479   -2.8951   25.0285 C   0  0  0  0  0  0  0  0  0  0  0  0
   12.1949   -3.5331   23.6771 C   0  0  0  0  0  0  0  0  0  0  0  0
   13.2327   -2.8553   22.8873 N   0  0  0  0  0  0  0  0  0  0  0  0
   13.9109   -1.7072   23.2075 C   0  0  0  0  0  0  0  0  0  0  0  0
   14.6340   -1.2500   22.2074 N   0  0  0  0  0  0  0  0  0  0  0  0
   14.4492   -2.1470   21.1907 C   0  0  0  0  0  0  0  0  0  0  0  0
   14.9627   -2.1215   19.8819 C   0  0  0  0  0  0  0  0  0  0  0  0
   14.6205   -3.1489   19.0009 C   0  0  0  0  0  0  0  0  0  0  0  0
   13.7960   -4.1876   19.4255 C   0  0  0  0  0  0  0  0  0  0  0  0
   13.2704   -4.2315   20.7260 C   0  0  0  0  0  0  0  0  0  0  0  0
   13.6046   -3.1838   21.5910 C   0  0  0  0  0  0  0  0  0  0  0  0
    0.2370   -6.4897   29.6559 H   0  0  0  0  0  0  0  0  0  0  0  0
    0.5180   -4.7782   29.3065 H   0  0  0  0  0  0  0  0  0  0  0  0
    1.2317   -5.5598   30.7746 H   0  0  0  0  0  0  0  0  0  0  0  0
    2.3728   -3.6439   30.2332 H   0  0  0  0  0  0  0  0  0  0  0  0
    4.3054   -2.1912   30.0683 H   0  0  0  0  0  0  0  0  0  0  0  0
    6.2701   -2.7966   28.6877 H   0  0  0  0  0  0  0  0  0  0  0  0
    3.9313   -7.4926   27.0990 H   0  0  0  0  0  0  0  0  0  0  0  0
    6.3934   -7.0994   26.0733 H   0  0  0  0  0  0  0  0  0  0  0  0
    7.2086   -3.5554   26.4753 H   0  0  0  0  0  0  0  0  0  0  0  0
    7.4375   -5.0381   25.5232 H   0  0  0  0  0  0  0  0  0  0  0  0
    8.9876   -5.7288   27.6021 H   0  0  0  0  0  0  0  0  0  0  0  0
    9.0853   -4.0020   27.8412 H   0  0  0  0  0  0  0  0  0  0  0  0
   10.0331   -2.7437   26.3589 H   0  0  0  0  0  0  0  0  0  0  0  0
   12.5823   -2.9623   25.7363 H   0  0  0  0  0  0  0  0  0  0  0  0
   11.5492   -1.8288   24.8763 H   0  0  0  0  0  0  0  0  0  0  0  0
   11.3376   -3.5935   23.0117 H   0  0  0  0  0  0  0  0  0  0  0  0
   12.5603   -4.5506   23.8557 H   0  0  0  0  0  0  0  0  0  0  0  0
   13.8190   -1.2190   24.1678 H   0  0  0  0  0  0  0  0  0  0  0  0
   15.6150   -1.3123   19.5744 H   0  0  0  0  0  0  0  0  0  0  0  0
   15.0099   -3.1503   17.9866 H   0  0  0  0  0  0  0  0  0  0  0  0
   13.5534   -4.9833   18.7262 H   0  0  0  0  0  0  0  0  0  0  0  0
   12.6066   -5.0348   21.0247 H   0  0  0  0  0  0  0  0  0  0  0  0
  1  2  1  0
  2  3  1  0
  3  4  2  0
  4  5  1  0
  5  6  2  0
  6  7  1  0
  7  8  2  0
  8  9  1  0
  9 10  2  0
 10 11  1  0
 11 12  1  0
 12 13  1  0
 13 14  1  0
 14 15  2  0
 14 16  1  0
 16 17  1  0
 17 18  1  0
 18 19  1  0
 19 20  1  0
 20 21  2  0
 21 22  1  0
 22 23  2  0
 23 24  1  0
 24 25  2  0
 25 26  1  0
 26 27  2  0
  8  3  1  0
 27 19  1  0
 11  7  1  0
 27 22  1  0
  1 28  1  0
  1 29  1  0
  1 30  1  0
  4 31  1  0
  5 32  1  0
  6 33  1  0
  9 34  1  0
 10 35  1  0
 12 36  1  0
 12 37  1  0
 13 38  1  0
 13 39  1  0
 16 40  1  0
 17 41  1  0
 17 42  1  0
 18 43  1  0
 18 44  1  0
 20 45  1  0
 23 46  1  0
 24 47  1  0
 25 48  1  0
 26 49  1  0
M  END
>  <Energy>  (707) 
44.265881761642142

>  <compound_id>  (707) 
8489

>  <target_id>  (707) 
1

>  <reference_id>  (707) 
40

>  <inspiration_ids>  (707) 
[40, 103]

>  <energy_score>  (707) 
4.377664689317896

>  <distance_score>  (707) 
5.306574694051244

>  <path>  (707) 
/opt/xchem-fragalysis-2/maxwin/BulkDock/SCRATCH/511017/C8489-P40/C8489-P40.minimised.mol

>  <scratch_subdir>  (707) 
/opt/xchem-fragalysis-2/maxwin/BulkDock/SCRATCH/511017/C8489-P40

>  <fragmenstein_runtime>  (707) 
10.49871039390564

>  <fragmenstein_outcome>  (707) 
too moved

>  <fragmenstein_mode>  (707) 
expansion

>  <fragmenstein_error>  (707) 


$$$$
C8489-P103
     RDKit          3D

 49 52  0  0  0  0  0  0  0  0999 V2000
    2.8330   -2.6781   29.5605 C   0  0  0  0  0  0  0  0  0  0  0  0
    3.2488   -1.3589   29.2124 O   0  0  0  0  0  0  0  0  0  0  0  0
    4.3544   -1.4171   28.3825 C   0  0  0  0  0  0  0  0  0  0  0  0
    5.5864   -1.1183   28.9486 C   0  0  0  0  0  0  0  0  0  0  0  0
    6.7271   -1.1814   28.1636 C   0  0  0  0  0  0  0  0  0  0  0  0
    6.6575   -1.5040   26.7983 C   0  0  0  0  0  0  0  0  0  0  0  0
    5.3999   -1.7324   26.1783 C   0  0  0  0  0  0  0  0  0  0  0  0
    4.2599   -1.7210   27.0047 C   0  0  0  0  0  0  0  0  0  0  0  0
    3.1875   -2.0802   26.1945 C   0  0  0  0  0  0  0  0  0  0  0  0
    3.6587   -2.3892   24.9430 C   0  0  0  0  0  0  0  0  0  0  0  0
    5.0181   -2.2441   24.8795 N   0  0  0  0  0  0  0  0  0  0  0  0
    5.7336   -2.3664   23.5147 C   0  0  0  0  0  0  0  0  0  0  0  0
    7.1111   -3.7135   22.6575 C   0  0  0  0  0  0  0  0  0  0  0  0
    8.4738   -3.9471   21.0490 C   0  0  0  0  0  0  0  0  0  0  0  0
    8.1128   -4.4945   20.0438 O   0  0  0  0  0  0  0  0  0  0  0  0
   10.5174   -3.4425   21.2779 N   0  0  0  0  0  0  0  0  0  0  0  0
   12.0879   -3.8059   20.2515 C   0  0  0  0  0  0  0  0  0  0  0  0
   13.4270   -3.4590   21.0160 C   0  0  0  0  0  0  0  0  0  0  0  0
   14.2435   -2.4989   20.2578 N   0  0  0  0  0  0  0  0  0  0  0  0
   14.4908   -1.1975   20.6053 C   0  0  0  0  0  0  0  0  0  0  0  0
   14.8805   -0.4823   19.5716 N   0  0  0  0  0  0  0  0  0  0  0  0
   14.9661   -1.3676   18.5265 C   0  0  0  0  0  0  0  0  0  0  0  0
   15.2864   -1.1419   17.1794 C   0  0  0  0  0  0  0  0  0  0  0  0
   15.3109   -2.2313   16.3000 C   0  0  0  0  0  0  0  0  0  0  0  0
   15.0350   -3.5206   16.7558 C   0  0  0  0  0  0  0  0  0  0  0  0
   14.6937   -3.7613   18.0888 C   0  0  0  0  0  0  0  0  0  0  0  0
   14.6554   -2.6578   18.9474 C   0  0  0  0  0  0  0  0  0  0  0  0
    3.6666   -3.2767   29.9456 H   0  0  0  0  0  0  0  0  0  0  0  0
    2.3609   -3.1854   28.7139 H   0  0  0  0  0  0  0  0  0  0  0  0
    2.0865   -2.5928   30.3559 H   0  0  0  0  0  0  0  0  0  0  0  0
    5.6553   -0.8634   30.0007 H   0  0  0  0  0  0  0  0  0  0  0  0
    7.6998   -1.0028   28.6145 H   0  0  0  0  0  0  0  0  0  0  0  0
    7.5774   -1.6586   26.2442 H   0  0  0  0  0  0  0  0  0  0  0  0
    2.1657   -2.1167   26.5333 H   0  0  0  0  0  0  0  0  0  0  0  0
    3.1403   -2.6822   24.0473 H   0  0  0  0  0  0  0  0  0  0  0  0
    4.9791   -2.2384   22.7657 H   0  0  0  0  0  0  0  0  0  0  0  0
    5.7950   -1.3211   23.5199 H   0  0  0  0  0  0  0  0  0  0  0  0
    7.0022   -4.7915   22.9438 H   0  0  0  0  0  0  0  0  0  0  0  0
    7.5118   -3.8462   23.6515 H   0  0  0  0  0  0  0  0  0  0  0  0
   10.6756   -3.0728   22.1898 H   0  0  0  0  0  0  0  0  0  0  0  0
   12.2601   -3.2875   19.2906 H   0  0  0  0  0  0  0  0  0  0  0  0
   12.1032   -4.9151   20.2166 H   0  0  0  0  0  0  0  0  0  0  0  0
   14.0494   -4.3607   21.0787 H   0  0  0  0  0  0  0  0  0  0  0  0
   13.2832   -3.0999   22.0360 H   0  0  0  0  0  0  0  0  0  0  0  0
   14.3029   -0.8127   21.6000 H   0  0  0  0  0  0  0  0  0  0  0  0
   15.5153   -0.1387   16.8372 H   0  0  0  0  0  0  0  0  0  0  0  0
   15.5656   -2.0703   15.2547 H   0  0  0  0  0  0  0  0  0  0  0  0
   15.0862   -4.3542   16.0609 H   0  0  0  0  0  0  0  0  0  0  0  0
   14.4529   -4.7572   18.4351 H   0  0  0  0  0  0  0  0  0  0  0  0
  1  2  1  0
  2  3  1  0
  3  4  2  0
  4  5  1  0
  5  6  2  0
  6  7  1  0
  7  8  2  0
  8  9  1  0
  9 10  2  0
 10 11  1  0
 11 12  1  0
 12 13  1  0
 13 14  1  0
 14 15  2  0
 14 16  1  0
 16 17  1  0
 17 18  1  0
 18 19  1  0
 19 20  1  0
 20 21  2  0
 21 22  1  0
 22 23  2  0
 23 24  1  0
 24 25  2  0
 25 26  1  0
 26 27  2  0
  8  3  1  0
 27 19  1  0
 11  7  1  0
 27 22  1  0
  1 28  1  0
  1 29  1  0
  1 30  1  0
  4 31  1  0
  5 32  1  0
  6 33  1  0
  9 34  1  0
 10 35  1  0
 12 36  1  0
 12 37  1  0
 13 38  1  0
 13 39  1  0
 16 40  1  0
 17 41  1  0
 17 42  1  0
 18 43  1  0
 18 44  1  0
 20 45  1  0
 23 46  1  0
 24 47  1  0
 25 48  1  0
 26 49  1  0
M  END
>  <Energy>  (708) 
560.65339752343084

>  <compound_id>  (708) 
8489

>  <target_id>  (708) 
1

>  <reference_id>  (708) 
103

>  <inspiration_ids>  (708) 
[40, 103]

>  <energy_score>  (708) 
520.7651804511092

>  <distance_score>  (708) 
5.593382914279024

>  <path>  (708) 
/opt/xchem-fragalysis-2/maxwin/BulkDock/SCRATCH/511017/C8489-P103/C8489-P103.minimised.mol

>  <scratch_subdir>  (708) 
/opt/xchem-fragalysis-2/maxwin/BulkDock/SCRATCH/511017/C8489-P103

>  <fragmenstein_runtime>  (708) 
17.412925720214844

>  <fragmenstein_outcome>  (708) 
too moved

>  <fragmenstein_mode>  (708) 
expansion

>  <fragmenstein_error>  (708) 


$$$$
C8490-P40
     RDKit          3D

 42 45  0  0  0  0  0  0  0  0999 V2000
    2.3922   -4.3662   29.1172 C   0  0  0  0  0  0  0  0  0  0  0  0
    2.9202   -5.2859   28.1327 N   0  0  0  0  0  0  0  0  0  0  0  0
    2.5015   -6.5723   27.9545 C   0  0  0  0  0  0  0  0  0  0  0  0
    3.2298   -7.1087   26.9131 C   0  0  0  0  0  0  0  0  0  0  0  0
    4.1111   -6.1152   26.4182 C   0  0  0  0  0  0  0  0  0  0  0  0
    5.0364   -6.0791   25.3370 C   0  0  0  0  0  0  0  0  0  0  0  0
    5.6307   -4.8619   25.0198 C   0  0  0  0  0  0  0  0  0  0  0  0
    6.3374   -4.5308   23.8198 N   0  0  0  0  0  0  0  0  0  0  0  0
    6.8063   -5.3668   22.7106 C   0  0  0  0  0  0  0  0  0  0  0  0
    6.6346   -6.5348   22.5086 O   0  0  0  0  0  0  0  0  0  0  0  0
    7.8028   -4.4174   21.1488 C   0  0  0  0  0  0  0  0  0  0  0  0
    9.8492   -4.9764   20.7546 C   0  0  0  0  0  0  0  0  0  0  0  0
   11.3985   -4.3943   21.3424 N   0  0  0  0  0  0  0  0  0  0  0  0
   11.7516   -3.9323   22.5986 C   0  0  0  0  0  0  0  0  0  0  0  0
   13.0141   -3.6000   22.7212 N   0  0  0  0  0  0  0  0  0  0  0  0
   13.5511   -3.7346   21.4864 C   0  0  0  0  0  0  0  0  0  0  0  0
   14.8480   -3.3887   21.0636 C   0  0  0  0  0  0  0  0  0  0  0  0
   15.2061   -3.5235   19.7226 C   0  0  0  0  0  0  0  0  0  0  0  0
   14.2757   -3.9815   18.8098 C   0  0  0  0  0  0  0  0  0  0  0  0
   12.9864   -4.3302   19.2245 C   0  0  0  0  0  0  0  0  0  0  0  0
   12.6171   -4.2436   20.5871 C   0  0  0  0  0  0  0  0  0  0  0  0
    5.3908   -3.7496   25.8614 C   0  0  0  0  0  0  0  0  0  0  0  0
    4.5402   -3.7788   26.9638 C   0  0  0  0  0  0  0  0  0  0  0  0
    3.8783   -4.9755   27.1963 C   0  0  0  0  0  0  0  0  0  0  0  0
    3.2188   -4.0117   29.7380 H   0  0  0  0  0  0  0  0  0  0  0  0
    1.9137   -3.5354   28.5923 H   0  0  0  0  0  0  0  0  0  0  0  0
    1.6581   -4.8826   29.7412 H   0  0  0  0  0  0  0  0  0  0  0  0
    1.7061   -6.9809   28.5597 H   0  0  0  0  0  0  0  0  0  0  0  0
    3.1190   -8.0954   26.4842 H   0  0  0  0  0  0  0  0  0  0  0  0
    5.1742   -6.9481   24.6972 H   0  0  0  0  0  0  0  0  0  0  0  0
    6.5867   -3.5849   23.6393 H   0  0  0  0  0  0  0  0  0  0  0  0
    7.5739   -3.3570   21.2964 H   0  0  0  0  0  0  0  0  0  0  0  0
    7.2545   -4.5825   20.1789 H   0  0  0  0  0  0  0  0  0  0  0  0
   10.0032   -5.3528   19.7331 H   0  0  0  0  0  0  0  0  0  0  0  0
   10.2838   -5.9465   21.1190 H   0  0  0  0  0  0  0  0  0  0  0  0
   11.0857   -3.8293   23.4407 H   0  0  0  0  0  0  0  0  0  0  0  0
   15.5543   -3.0024   21.7907 H   0  0  0  0  0  0  0  0  0  0  0  0
   16.2075   -3.2566   19.3992 H   0  0  0  0  0  0  0  0  0  0  0  0
   14.5362   -4.0673   17.7580 H   0  0  0  0  0  0  0  0  0  0  0  0
   12.2706   -4.5627   18.4506 H   0  0  0  0  0  0  0  0  0  0  0  0
    5.8601   -2.7931   25.6336 H   0  0  0  0  0  0  0  0  0  0  0  0
    4.3753   -2.8894   27.5616 H   0  0  0  0  0  0  0  0  0  0  0  0
  1  2  1  0
  2  3  1  0
  3  4  2  0
  4  5  1  0
  5  6  2  0
  6  7  1  0
  7  8  1  0
  8  9  1  0
  9 10  2  0
  9 11  1  0
 11 12  1  0
 12 13  1  0
 13 14  1  0
 14 15  2  0
 15 16  1  0
 16 17  2  0
 17 18  1  0
 18 19  2  0
 19 20  1  0
 20 21  2  0
  7 22  2  0
 22 23  1  0
 23 24  2  0
 24  2  1  0
 24  5  1  0
 21 13  1  0
 21 16  1  0
  1 25  1  0
  1 26  1  0
  1 27  1  0
  3 28  1  0
  4 29  1  0
  6 30  1  0
  8 31  1  0
 11 32  1  0
 11 33  1  0
 12 34  1  0
 12 35  1  0
 14 36  1  0
 17 37  1  0
 18 38  1  0
 19 39  1  0
 20 40  1  0
 22 41  1  0
 23 42  1  0
M  END
>  <Energy>  (709) 
259.30735573347829

>  <compound_id>  (709) 
8490

>  <target_id>  (709) 
1

>  <reference_id>  (709) 
40

>  <inspiration_ids>  (709) 
[40, 103]

>  <energy_score>  (709) 
224.5239826830017

>  <distance_score>  (709) 
7.234100274321468

>  <path>  (709) 
/opt/xchem-fragalysis-2/maxwin/BulkDock/SCRATCH/511017/C8490-P40/C8490-P40.minimised.mol

>  <scratch_subdir>  (709) 
/opt/xchem-fragalysis-2/maxwin/BulkDock/SCRATCH/511017/C8490-P40

>  <fragmenstein_runtime>  (709) 
9.408170938491821

>  <fragmenstein_outcome>  (709) 
too moved

>  <fragmenstein_mode>  (709) 
expansion

>  <fragmenstein_error>  (709) 


$$$$
C8490-P103
     RDKit          3D

 42 45  0  0  0  0  0  0  0  0999 V2000
   -0.2810   -3.0768   23.9978 C   0  0  0  0  0  0  0  0  0  0  0  0
   -0.6856   -5.1068   24.6048 N   0  0  0  0  0  0  0  0  0  0  0  0
   -0.2392   -6.3839   24.4527 C   0  0  0  0  0  0  0  0  0  0  0  0
   -0.2486   -6.7633   25.8056 C   0  0  0  0  0  0  0  0  0  0  0  0
    0.6156   -5.8055   26.6783 C   0  0  0  0  0  0  0  0  0  0  0  0
    1.8428   -4.5013   26.7527 C   0  0  0  0  0  0  0  0  0  0  0  0
    2.6063   -3.0511   26.5865 C   0  0  0  0  0  0  0  0  0  0  0  0
    3.0499   -2.1824   24.9982 N   0  0  0  0  0  0  0  0  0  0  0  0
    4.6027   -1.7541   24.2982 C   0  0  0  0  0  0  0  0  0  0  0  0
    5.6575   -1.9153   24.8492 O   0  0  0  0  0  0  0  0  0  0  0  0
    4.9021   -0.9086   22.4379 C   0  0  0  0  0  0  0  0  0  0  0  0
    5.8885    0.3720   21.0461 C   0  0  0  0  0  0  0  0  0  0  0  0
    7.2453    0.5649   19.7582 N   0  0  0  0  0  0  0  0  0  0  0  0
    7.3530    2.1117   19.1251 C   0  0  0  0  0  0  0  0  0  0  0  0
    7.8204    2.1713   17.7766 N   0  0  0  0  0  0  0  0  0  0  0  0
    7.9346    0.6396   17.0295 C   0  0  0  0  0  0  0  0  0  0  0  0
    8.1918   -0.2584   15.8532 C   0  0  0  0  0  0  0  0  0  0  0  0
    9.4607   -0.3872   15.3935 C   0  0  0  0  0  0  0  0  0  0  0  0
   10.2252    0.2217   16.2675 C   0  0  0  0  0  0  0  0  0  0  0  0
    9.4662    0.4933   17.4870 C   0  0  0  0  0  0  0  0  0  0  0  0
    8.0272   -0.0830   18.2460 C   0  0  0  0  0  0  0  0  0  0  0  0
    1.4291   -2.7531   27.4612 C   0  0  0  0  0  0  0  0  0  0  0  0
   -0.0563   -3.7594   27.6103 C   0  0  0  0  0  0  0  0  0  0  0  0
   -0.5150   -5.1101   26.5605 C   0  0  0  0  0  0  0  0  0  0  0  0
    0.3289   -2.5843   25.7310 H   0  0  0  0  0  0  0  0  0  0  0  0
    0.0972   -2.5817   25.7967 H   0  0  0  0  0  0  0  0  0  0  0  0
    0.2211   -2.7251   25.7997 H   0  0  0  0  0  0  0  0  0  0  0  0
   -0.1108   -6.9423   23.5377 H   0  0  0  0  0  0  0  0  0  0  0  0
   -0.3033   -7.7973   26.1194 H   0  0  0  0  0  0  0  0  0  0  0  0
    2.0299   -4.6019   27.8874 H   0  0  0  0  0  0  0  0  0  0  0  0
    2.3321   -2.0307   24.3178 H   0  0  0  0  0  0  0  0  0  0  0  0
    5.4858   -1.7813   22.1790 H   0  0  0  0  0  0  0  0  0  0  0  0
    4.9685   -0.0531   23.1352 H   0  0  0  0  0  0  0  0  0  0  0  0
    6.4049    1.1777   21.6142 H   0  0  0  0  0  0  0  0  0  0  0  0
    5.2003    1.1117   20.6368 H   0  0  0  0  0  0  0  0  0  0  0  0
    6.8643    2.8679   19.7323 H   0  0  0  0  0  0  0  0  0  0  0  0
    7.5101   -1.0925   15.6544 H   0  0  0  0  0  0  0  0  0  0  0  0
    9.7816   -0.8888   14.5059 H   0  0  0  0  0  0  0  0  0  0  0  0
   11.2127    0.6100   16.0625 H   0  0  0  0  0  0  0  0  0  0  0  0
    9.7537    1.5633   17.6841 H   0  0  0  0  0  0  0  0  0  0  0  0
    1.2882   -1.7396   27.8485 H   0  0  0  0  0  0  0  0  0  0  0  0
   -0.9086   -3.2604   28.0882 H   0  0  0  0  0  0  0  0  0  0  0  0
  1  2  1  0
  2  3  1  0
  3  4  2  0
  4  5  1  0
  5  6  2  0
  6  7  1  0
  7  8  1  0
  8  9  1  0
  9 10  2  0
  9 11  1  0
 11 12  1  0
 12 13  1  0
 13 14  1  0
 14 15  2  0
 15 16  1  0
 16 17  2  0
 17 18  1  0
 18 19  2  0
 19 20  1  0
 20 21  2  0
  7 22  2  0
 22 23  1  0
 23 24  2  0
 24  2  1  0
 24  5  1  0
 21 13  1  0
 21 16  1  0
  1 25  1  0
  1 26  1  0
  1 27  1  0
  3 28  1  0
  4 29  1  0
  6 30  1  0
  8 31  1  0
 11 32  1  0
 11 33  1  0
 12 34  1  0
 12 35  1  0
 14 36  1  0
 17 37  1  0
 18 38  1  0
 19 39  1  0
 20 40  1  0
 22 41  1  0
 23 42  1  0
M  END
>  <Energy>  (710) 
2602.0816326871718

>  <compound_id>  (710) 
8490

>  <target_id>  (710) 
1

>  <reference_id>  (710) 
103

>  <inspiration_ids>  (710) 
[40, 103]

>  <energy_score>  (710) 
2567.2982596367005

>  <distance_score>  (710) 
6.080015735318698

>  <path>  (710) 
/opt/xchem-fragalysis-2/maxwin/BulkDock/SCRATCH/511017/C8490-P103/C8490-P103.minimised.mol

>  <scratch_subdir>  (710) 
/opt/xchem-fragalysis-2/maxwin/BulkDock/SCRATCH/511017/C8490-P103

>  <fragmenstein_runtime>  (710) 
12.166830778121948

>  <fragmenstein_outcome>  (710) 
too moved

>  <fragmenstein_mode>  (710) 
expansion

>  <fragmenstein_error>  (710) 


$$$$
C8491-P40
     RDKit          3D

 42 45  0  0  0  0  0  0  0  0999 V2000
    2.5490   -4.2001   29.8049 C   0  0  0  0  0  0  0  0  0  0  0  0
    3.0587   -4.8295   28.6061 N   0  0  0  0  0  0  0  0  0  0  0  0
    2.2853   -5.3669   27.6190 C   0  0  0  0  0  0  0  0  0  0  0  0
    3.1151   -5.7774   26.6023 C   0  0  0  0  0  0  0  0  0  0  0  0
    4.4566   -5.4838   26.9784 C   0  0  0  0  0  0  0  0  0  0  0  0
    5.7226   -5.6005   26.3434 C   0  0  0  0  0  0  0  0  0  0  0  0
    5.8376   -6.0352   24.9008 C   0  0  0  0  0  0  0  0  0  0  0  0
    5.1699   -6.9647   24.5596 O   0  0  0  0  0  0  0  0  0  0  0  0
    6.7079   -5.1723   24.1418 N   0  0  0  0  0  0  0  0  0  0  0  0
    6.9924   -5.0930   22.6087 C   0  0  0  0  0  0  0  0  0  0  0  0
    8.0236   -4.3626   20.9896 C   0  0  0  0  0  0  0  0  0  0  0  0
    9.9809   -4.9180   20.8640 N   0  0  0  0  0  0  0  0  0  0  0  0
   11.1724   -3.8993   21.5789 C   0  0  0  0  0  0  0  0  0  0  0  0
   12.3682   -4.0695   21.1202 N   0  0  0  0  0  0  0  0  0  0  0  0
   12.4059   -5.3777   21.2711 C   0  0  0  0  0  0  0  0  0  0  0  0
   13.5933   -6.0277   21.6667 C   0  0  0  0  0  0  0  0  0  0  0  0
   13.5466   -7.3089   22.1845 C   0  0  0  0  0  0  0  0  0  0  0  0
   12.3464   -7.9852   22.1761 C   0  0  0  0  0  0  0  0  0  0  0  0
   11.1824   -7.3916   21.6520 C   0  0  0  0  0  0  0  0  0  0  0  0
   11.1151   -6.0150   21.2476 C   0  0  0  0  0  0  0  0  0  0  0  0
    6.8654   -5.2639   27.0876 C   0  0  0  0  0  0  0  0  0  0  0  0
    6.7675   -4.7718   28.3896 C   0  0  0  0  0  0  0  0  0  0  0  0
    5.5294   -4.5819   28.9974 C   0  0  0  0  0  0  0  0  0  0  0  0
    4.3886   -4.9428   28.2732 C   0  0  0  0  0  0  0  0  0  0  0  0
    2.8912   -4.7741   30.6688 H   0  0  0  0  0  0  0  0  0  0  0  0
    2.9253   -3.1748   29.8456 H   0  0  0  0  0  0  0  0  0  0  0  0
    1.4563   -4.1901   29.7770 H   0  0  0  0  0  0  0  0  0  0  0  0
    1.2148   -5.3780   27.7230 H   0  0  0  0  0  0  0  0  0  0  0  0
    2.8213   -6.2359   25.6669 H   0  0  0  0  0  0  0  0  0  0  0  0
    7.0523   -4.4286   24.7492 H   0  0  0  0  0  0  0  0  0  0  0  0
    6.5345   -4.1069   22.7721 H   0  0  0  0  0  0  0  0  0  0  0  0
    6.5890   -6.0750   22.3516 H   0  0  0  0  0  0  0  0  0  0  0  0
    7.5011   -4.5329   20.0377 H   0  0  0  0  0  0  0  0  0  0  0  0
    7.9100   -3.3093   21.1624 H   0  0  0  0  0  0  0  0  0  0  0  0
   10.8874   -3.1556   22.2988 H   0  0  0  0  0  0  0  0  0  0  0  0
   14.5219   -5.4648   21.6698 H   0  0  0  0  0  0  0  0  0  0  0  0
   14.4535   -7.7843   22.5455 H   0  0  0  0  0  0  0  0  0  0  0  0
   12.3199   -9.0258   22.4942 H   0  0  0  0  0  0  0  0  0  0  0  0
   10.3911   -8.0917   21.4567 H   0  0  0  0  0  0  0  0  0  0  0  0
    7.8522   -5.3783   26.6435 H   0  0  0  0  0  0  0  0  0  0  0  0
    7.6756   -4.5103   28.9295 H   0  0  0  0  0  0  0  0  0  0  0  0
    5.4669   -4.1658   29.9978 H   0  0  0  0  0  0  0  0  0  0  0  0
  1  2  1  0
  2  3  1  0
  3  4  2  0
  4  5  1  0
  5  6  2  0
  6  7  1  0
  7  8  2  0
  7  9  1  0
  9 10  1  0
 10 11  1  0
 11 12  1  0
 12 13  1  0
 13 14  2  0
 14 15  1  0
 15 16  2  0
 16 17  1  0
 17 18  2  0
 18 19  1  0
 19 20  2  0
  6 21  1  0
 21 22  2  0
 22 23  1  0
 23 24  2  0
 24  2  1  0
 24  5  1  0
 20 12  1  0
 20 15  1  0
  1 25  1  0
  1 26  1  0
  1 27  1  0
  3 28  1  0
  4 29  1  0
  9 30  1  0
 10 31  1  0
 10 32  1  0
 11 33  1  0
 11 34  1  0
 13 35  1  0
 16 36  1  0
 17 37  1  0
 18 38  1  0
 19 39  1  0
 21 40  1  0
 22 41  1  0
 23 42  1  0
M  END
>  <Energy>  (711) 
406.76047235993872

>  <compound_id>  (711) 
8491

>  <target_id>  (711) 
1

>  <reference_id>  (711) 
40

>  <inspiration_ids>  (711) 
[40, 103]

>  <energy_score>  (711) 
349.6088333197506

>  <distance_score>  (711) 
6.941281061675706

>  <path>  (711) 
/opt/xchem-fragalysis-2/maxwin/BulkDock/SCRATCH/511017/C8491-P40/C8491-P40.minimised.mol

>  <scratch_subdir>  (711) 
/opt/xchem-fragalysis-2/maxwin/BulkDock/SCRATCH/511017/C8491-P40

>  <fragmenstein_runtime>  (711) 
9.930730819702148

>  <fragmenstein_outcome>  (711) 
too moved

>  <fragmenstein_mode>  (711) 
expansion

>  <fragmenstein_error>  (711) 


$$$$
C8491-P103
     RDKit          3D

 42 45  0  0  0  0  0  0  0  0999 V2000
    5.3199   -2.7405   29.2811 C   0  0  0  0  0  0  0  0  0  0  0  0
    6.5481   -2.4089   28.5976 N   0  0  0  0  0  0  0  0  0  0  0  0
    6.7811   -1.1731   28.0610 C   0  0  0  0  0  0  0  0  0  0  0  0
    8.0374   -1.1894   27.5059 C   0  0  0  0  0  0  0  0  0  0  0  0
    8.5903   -2.4931   27.6596 C   0  0  0  0  0  0  0  0  0  0  0  0
    9.8237   -3.0983   27.2690 C   0  0  0  0  0  0  0  0  0  0  0  0
   10.9481   -2.2677   26.6663 C   0  0  0  0  0  0  0  0  0  0  0  0
   11.1889   -1.2691   27.2832 O   0  0  0  0  0  0  0  0  0  0  0  0
   11.5755   -2.8211   25.4838 N   0  0  0  0  0  0  0  0  0  0  0  0
   12.6443   -2.2811   24.6088 C   0  0  0  0  0  0  0  0  0  0  0  0
   13.2352   -3.1965   23.4914 C   0  0  0  0  0  0  0  0  0  0  0  0
   14.0504   -2.5695   22.4428 N   0  0  0  0  0  0  0  0  0  0  0  0
   14.7685   -1.4056   22.5547 C   0  0  0  0  0  0  0  0  0  0  0  0
   15.2581   -1.0027   21.4018 N   0  0  0  0  0  0  0  0  0  0  0  0
   14.8499   -1.9382   20.4886 C   0  0  0  0  0  0  0  0  0  0  0  0
   15.0512   -1.9672   19.0966 C   0  0  0  0  0  0  0  0  0  0  0  0
   14.5061   -3.0166   18.3517 C   0  0  0  0  0  0  0  0  0  0  0  0
   13.7860   -4.0248   18.9882 C   0  0  0  0  0  0  0  0  0  0  0  0
   13.5888   -4.0254   20.3785 C   0  0  0  0  0  0  0  0  0  0  0  0
   14.1258   -2.9575   21.1096 C   0  0  0  0  0  0  0  0  0  0  0  0
   10.0209   -4.4454   27.6187 C   0  0  0  0  0  0  0  0  0  0  0  0
    9.0561   -5.1627   28.3390 C   0  0  0  0  0  0  0  0  0  0  0  0
    7.8552   -4.5729   28.7394 C   0  0  0  0  0  0  0  0  0  0  0  0
    7.6340   -3.2365   28.3797 C   0  0  0  0  0  0  0  0  0  0  0  0
    5.3904   -3.7281   29.7390 H   0  0  0  0  0  0  0  0  0  0  0  0
    4.5063   -2.7203   28.5517 H   0  0  0  0  0  0  0  0  0  0  0  0
    5.1467   -1.9934   30.0607 H   0  0  0  0  0  0  0  0  0  0  0  0
    6.0445   -0.3831   28.1205 H   0  0  0  0  0  0  0  0  0  0  0  0
    8.5205   -0.3493   27.0260 H   0  0  0  0  0  0  0  0  0  0  0  0
   11.0539   -3.6427   25.1854 H   0  0  0  0  0  0  0  0  0  0  0  0
   12.2328   -1.3602   24.1856 H   0  0  0  0  0  0  0  0  0  0  0  0
   13.4505   -1.9598   25.2791 H   0  0  0  0  0  0  0  0  0  0  0  0
   13.8714   -3.9639   23.9474 H   0  0  0  0  0  0  0  0  0  0  0  0
   12.4131   -3.7166   22.9894 H   0  0  0  0  0  0  0  0  0  0  0  0
   14.8853   -0.8786   23.4923 H   0  0  0  0  0  0  0  0  0  0  0  0
   15.6116   -1.1708   18.6192 H   0  0  0  0  0  0  0  0  0  0  0  0
   14.6397   -3.0374   17.2732 H   0  0  0  0  0  0  0  0  0  0  0  0
   13.3361   -4.8097   18.3892 H   0  0  0  0  0  0  0  0  0  0  0  0
   12.9906   -4.7955   20.8508 H   0  0  0  0  0  0  0  0  0  0  0  0
   10.9660   -4.9245   27.3761 H   0  0  0  0  0  0  0  0  0  0  0  0
    9.2603   -6.1948   28.6134 H   0  0  0  0  0  0  0  0  0  0  0  0
    7.1238   -5.1378   29.3039 H   0  0  0  0  0  0  0  0  0  0  0  0
  1  2  1  0
  2  3  1  0
  3  4  2  0
  4  5  1  0
  5  6  2  0
  6  7  1  0
  7  8  2  0
  7  9  1  0
  9 10  1  0
 10 11  1  0
 11 12  1  0
 12 13  1  0
 13 14  2  0
 14 15  1  0
 15 16  2  0
 16 17  1  0
 17 18  2  0
 18 19  1  0
 19 20  2  0
  6 21  1  0
 21 22  2  0
 22 23  1  0
 23 24  2  0
 24  2  1  0
 24  5  1  0
 20 12  1  0
 20 15  1  0
  1 25  1  0
  1 26  1  0
  1 27  1  0
  3 28  1  0
  4 29  1  0
  9 30  1  0
 10 31  1  0
 10 32  1  0
 11 33  1  0
 11 34  1  0
 13 35  1  0
 16 36  1  0
 17 37  1  0
 18 38  1  0
 19 39  1  0
 21 40  1  0
 22 41  1  0
 23 42  1  0
M  END
>  <Energy>  (712) 
57.307267078074013

>  <compound_id>  (712) 
8491

>  <target_id>  (712) 
1

>  <reference_id>  (712) 
103

>  <inspiration_ids>  (712) 
[40, 103]

>  <energy_score>  (712) 
0.1556280378860606

>  <distance_score>  (712) 
7.490099809739184

>  <path>  (712) 
/opt/xchem-fragalysis-2/maxwin/BulkDock/SCRATCH/511017/C8491-P103/C8491-P103.minimised.mol

>  <scratch_subdir>  (712) 
/opt/xchem-fragalysis-2/maxwin/BulkDock/SCRATCH/511017/C8491-P103

>  <fragmenstein_runtime>  (712) 
15.355999946594238

>  <fragmenstein_outcome>  (712) 
too moved

>  <fragmenstein_mode>  (712) 
expansion

>  <fragmenstein_error>  (712) 


$$$$
C8492-P40
     RDKit          3D

 65 68  0  0  0  0  0  0  0  0999 V2000
    4.5582   -1.1559   26.2445 C   0  0  0  0  0  0  0  0  0  0  0  0
    5.3333   -2.2250   26.8330 N   0  0  0  0  0  0  0  0  0  0  0  0
    6.6985   -2.2010   26.8853 C   0  0  0  0  0  0  0  0  0  0  0  0
    7.1561   -3.3268   27.5372 C   0  0  0  0  0  0  0  0  0  0  0  0
    8.5979   -3.5363   27.9537 C   0  0  0  0  0  0  0  0  0  0  0  0
    9.6728   -3.9874   26.9277 C   0  0  0  0  0  0  0  0  0  0  0  0
    9.3670   -5.2829   26.3621 N   0  0  0  0  0  0  0  0  0  0  0  0
   10.0908   -6.4810   26.3639 C   0  0  0  0  0  0  0  0  0  0  0  0
   11.1831   -6.7293   26.7619 O   0  0  0  0  0  0  0  0  0  0  0  0
    9.2472   -7.4333   25.8781 O   0  0  0  0  0  0  0  0  0  0  0  0
    9.5271   -8.8410   26.1321 C   0  0  0  0  0  0  0  0  0  0  0  0
    9.6797   -9.1298   27.6337 C   0  0  0  0  0  0  0  0  0  0  0  0
   10.7476   -9.3101   25.3344 C   0  0  0  0  0  0  0  0  0  0  0  0
    8.2815   -9.5938   25.6442 C   0  0  0  0  0  0  0  0  0  0  0  0
   10.3371   -2.8823   26.0053 C   0  0  0  0  0  0  0  0  0  0  0  0
    9.9462   -1.7519   26.0975 O   0  0  0  0  0  0  0  0  0  0  0  0
   11.4360   -3.4489   25.2246 N   0  0  0  0  0  0  0  0  0  0  0  0
   12.4621   -2.7979   24.3891 C   0  0  0  0  0  0  0  0  0  0  0  0
   12.7244   -3.3737   22.9718 C   0  0  0  0  0  0  0  0  0  0  0  0
   13.6420   -2.6496   22.0892 N   0  0  0  0  0  0  0  0  0  0  0  0
   14.2681   -1.4545   22.3319 C   0  0  0  0  0  0  0  0  0  0  0  0
   14.9169   -1.0022   21.2800 N   0  0  0  0  0  0  0  0  0  0  0  0
   14.7062   -1.9325   20.2986 C   0  0  0  0  0  0  0  0  0  0  0  0
   15.1139   -1.9110   18.9538 C   0  0  0  0  0  0  0  0  0  0  0  0
   14.6854   -2.9302   18.1019 C   0  0  0  0  0  0  0  0  0  0  0  0
   13.8988   -3.9674   18.5949 C   0  0  0  0  0  0  0  0  0  0  0  0
   13.5259   -4.0372   19.9443 C   0  0  0  0  0  0  0  0  0  0  0  0
   13.9260   -2.9864   20.7749 C   0  0  0  0  0  0  0  0  0  0  0  0
    5.9735   -4.0933   27.8662 C   0  0  0  0  0  0  0  0  0  0  0  0
    5.7440   -5.3200   28.5277 C   0  0  0  0  0  0  0  0  0  0  0  0
    4.4327   -5.7653   28.7500 C   0  0  0  0  0  0  0  0  0  0  0  0
    3.3409   -5.0003   28.3577 C   0  0  0  0  0  0  0  0  0  0  0  0
    3.5327   -3.7844   27.7003 C   0  0  0  0  0  0  0  0  0  0  0  0
    4.8513   -3.3574   27.4512 C   0  0  0  0  0  0  0  0  0  0  0  0
    3.5715   -1.1127   26.7088 H   0  0  0  0  0  0  0  0  0  0  0  0
    5.0729   -0.2063   26.4168 H   0  0  0  0  0  0  0  0  0  0  0  0
    4.4814   -1.3485   25.1722 H   0  0  0  0  0  0  0  0  0  0  0  0
    7.2538   -1.3636   26.4783 H   0  0  0  0  0  0  0  0  0  0  0  0
    8.5881   -4.2762   28.7671 H   0  0  0  0  0  0  0  0  0  0  0  0
    8.9391   -2.6016   28.4206 H   0  0  0  0  0  0  0  0  0  0  0  0
   10.5330   -4.2084   27.5834 H   0  0  0  0  0  0  0  0  0  0  0  0
    8.4296   -5.4649   26.0145 H   0  0  0  0  0  0  0  0  0  0  0  0
    8.8498   -8.6916   28.1998 H   0  0  0  0  0  0  0  0  0  0  0  0
    9.7055  -10.2072   27.8308 H   0  0  0  0  0  0  0  0  0  0  0  0
   10.6003   -8.7062   28.0457 H   0  0  0  0  0  0  0  0  0  0  0  0
   11.6805   -8.9124   25.7458 H   0  0  0  0  0  0  0  0  0  0  0  0
   10.6942   -8.9622   24.2980 H   0  0  0  0  0  0  0  0  0  0  0  0
   10.8313  -10.4021   25.3358 H   0  0  0  0  0  0  0  0  0  0  0  0
    7.3821   -9.2382   26.1604 H   0  0  0  0  0  0  0  0  0  0  0  0
    8.1145   -9.4202   24.5807 H   0  0  0  0  0  0  0  0  0  0  0  0
    8.3683  -10.6740   25.8028 H   0  0  0  0  0  0  0  0  0  0  0  0
   11.5323   -4.4338   25.4535 H   0  0  0  0  0  0  0  0  0  0  0  0
   12.2002   -1.7383   24.3527 H   0  0  0  0  0  0  0  0  0  0  0  0
   13.3916   -2.8607   24.9677 H   0  0  0  0  0  0  0  0  0  0  0  0
   13.1361   -4.3854   23.0722 H   0  0  0  0  0  0  0  0  0  0  0  0
   11.7783   -3.4635   22.4297 H   0  0  0  0  0  0  0  0  0  0  0  0
   14.2015   -0.9368   23.2799 H   0  0  0  0  0  0  0  0  0  0  0  0
   15.7200   -1.0904   18.5870 H   0  0  0  0  0  0  0  0  0  0  0  0
   14.9662   -2.9157   17.0525 H   0  0  0  0  0  0  0  0  0  0  0  0
   13.5578   -4.7423   17.9143 H   0  0  0  0  0  0  0  0  0  0  0  0
   12.8942   -4.8437   20.2989 H   0  0  0  0  0  0  0  0  0  0  0  0
    6.5856   -5.9196   28.8625 H   0  0  0  0  0  0  0  0  0  0  0  0
    4.2845   -6.7189   29.2394 H   0  0  0  0  0  0  0  0  0  0  0  0
    2.3312   -5.3429   28.5612 H   0  0  0  0  0  0  0  0  0  0  0  0
    2.6832   -3.1782   27.4045 H   0  0  0  0  0  0  0  0  0  0  0  0
  1  2  1  0
  2  3  1  0
  3  4  2  0
  4  5  1  0
  5  6  1  0
  6  7  1  0
  7  8  1  0
  8  9  2  0
  8 10  1  0
 10 11  1  0
 11 12  1  0
 11 13  1  0
 11 14  1  0
  6 15  1  0
 15 16  2  0
 15 17  1  0
 17 18  1  0
 18 19  1  0
 19 20  1  0
 20 21  1  0
 21 22  2  0
 22 23  1  0
 23 24  2  0
 24 25  1  0
 25 26  2  0
 26 27  1  0
 27 28  2  0
  4 29  1  0
 29 30  2  0
 30 31  1  0
 31 32  2  0
 32 33  1  0
 33 34  2  0
 34  2  1  0
 28 20  1  0
 34 29  1  0
 28 23  1  0
  1 35  1  0
  1 36  1  0
  1 37  1  0
  3 38  1  0
  5 39  1  0
  5 40  1  0
  6 41  1  0
  7 42  1  0
 12 43  1  0
 12 44  1  0
 12 45  1  0
 13 46  1  0
 13 47  1  0
 13 48  1  0
 14 49  1  0
 14 50  1  0
 14 51  1  0
 17 52  1  0
 18 53  1  0
 18 54  1  0
 19 55  1  0
 19 56  1  0
 21 57  1  0
 24 58  1  0
 25 59  1  0
 26 60  1  0
 27 61  1  0
 30 62  1  0
 31 63  1  0
 32 64  1  0
 33 65  1  0
M  END
>  <Energy>  (713) 
25.942473801967672

>  <compound_id>  (713) 
8492

>  <target_id>  (713) 
1

>  <reference_id>  (713) 
40

>  <inspiration_ids>  (713) 
[40, 103]

>  <energy_score>  (713) 
-18.380331442498402

>  <distance_score>  (713) 
5.427092038181345

>  <path>  (713) 
/opt/xchem-fragalysis-2/maxwin/BulkDock/SCRATCH/511017/C8492-P40/C8492-P40.minimised.mol

>  <scratch_subdir>  (713) 
/opt/xchem-fragalysis-2/maxwin/BulkDock/SCRATCH/511017/C8492-P40

>  <fragmenstein_runtime>  (713) 
45.05621266365051

>  <fragmenstein_outcome>  (713) 
too moved

>  <fragmenstein_mode>  (713) 
expansion

>  <fragmenstein_error>  (713) 


$$$$
C8492-P103
     RDKit          3D

 65 68  0  0  0  0  0  0  0  0999 V2000
    4.6494    0.8657   27.0068 C   0  0  0  0  0  0  0  0  0  0  0  0
    4.3919   -0.5153   26.6739 N   0  0  0  0  0  0  0  0  0  0  0  0
    4.2434   -0.9834   25.3872 C   0  0  0  0  0  0  0  0  0  0  0  0
    4.2220   -2.3896   25.3494 C   0  0  0  0  0  0  0  0  0  0  0  0
    5.6616   -2.9204   24.3929 C   0  0  0  0  0  0  0  0  0  0  0  0
    6.4743   -4.6159   23.4762 C   0  0  0  0  0  0  0  0  0  0  0  0
    6.1981   -6.5621   23.3583 N   0  0  0  0  0  0  0  0  0  0  0  0
    4.7918   -7.5751   23.7367 C   0  0  0  0  0  0  0  0  0  0  0  0
    3.7741   -7.1610   24.2438 O   0  0  0  0  0  0  0  0  0  0  0  0
    4.5695   -9.3817   23.2716 O   0  0  0  0  0  0  0  0  0  0  0  0
    3.0553  -10.3753   22.7319 C   0  0  0  0  0  0  0  0  0  0  0  0
    1.4129   -9.8281   21.4593 C   0  0  0  0  0  0  0  0  0  0  0  0
    3.9634  -11.5130   22.2562 C   0  0  0  0  0  0  0  0  0  0  0  0
    2.4773   -8.5326   22.6617 C   0  0  0  0  0  0  0  0  0  0  0  0
    7.7285   -4.7066   22.8902 C   0  0  0  0  0  0  0  0  0  0  0  0
    8.3467   -5.5023   23.5029 O   0  0  0  0  0  0  0  0  0  0  0  0
    8.5529   -3.6051   21.4923 N   0  0  0  0  0  0  0  0  0  0  0  0
   10.6964   -3.4278   20.9798 C   0  0  0  0  0  0  0  0  0  0  0  0
   12.4567   -3.9931   20.9396 C   0  0  0  0  0  0  0  0  0  0  0  0
   13.4350   -3.1876   20.1985 N   0  0  0  0  0  0  0  0  0  0  0  0
   14.3364   -2.3257   20.7734 C   0  0  0  0  0  0  0  0  0  0  0  0
   15.0212   -1.6507   19.8774 N   0  0  0  0  0  0  0  0  0  0  0  0
   14.5902   -2.1158   18.6652 C   0  0  0  0  0  0  0  0  0  0  0  0
   14.9348   -1.6840   17.3740 C   0  0  0  0  0  0  0  0  0  0  0  0
   14.2988   -2.2620   16.2725 C   0  0  0  0  0  0  0  0  0  0  0  0
   13.3656   -3.2762   16.4561 C   0  0  0  0  0  0  0  0  0  0  0  0
   13.0564   -3.7564   17.7300 C   0  0  0  0  0  0  0  0  0  0  0  0
   13.6471   -3.1316   18.8307 C   0  0  0  0  0  0  0  0  0  0  0  0
    3.6472   -2.5528   26.7645 C   0  0  0  0  0  0  0  0  0  0  0  0
    2.5540   -3.2339   27.3959 C   0  0  0  0  0  0  0  0  0  0  0  0
    2.2670   -3.1692   28.7713 C   0  0  0  0  0  0  0  0  0  0  0  0
    2.9791   -2.3038   29.5690 C   0  0  0  0  0  0  0  0  0  0  0  0
    3.8536   -1.4057   28.9672 C   0  0  0  0  0  0  0  0  0  0  0  0
    4.0454   -1.4802   27.5682 C   0  0  0  0  0  0  0  0  0  0  0  0
    4.4377    1.0604   28.0593 H   0  0  0  0  0  0  0  0  0  0  0  0
    5.7013    1.0751   26.8078 H   0  0  0  0  0  0  0  0  0  0  0  0
    3.9937    1.4981   26.4039 H   0  0  0  0  0  0  0  0  0  0  0  0
    4.5289   -0.3108   24.6016 H   0  0  0  0  0  0  0  0  0  0  0  0
    6.4030   -2.4291   25.0679 H   0  0  0  0  0  0  0  0  0  0  0  0
    5.4969   -2.1878   23.5637 H   0  0  0  0  0  0  0  0  0  0  0  0
    7.0937   -4.1797   24.2195 H   0  0  0  0  0  0  0  0  0  0  0  0
    6.9416   -7.1472   23.0222 H   0  0  0  0  0  0  0  0  0  0  0  0
    0.7040  -10.6752   21.5089 H   0  0  0  0  0  0  0  0  0  0  0  0
    0.5198   -9.2092   21.8116 H   0  0  0  0  0  0  0  0  0  0  0  0
    1.5492   -9.4788   20.4415 H   0  0  0  0  0  0  0  0  0  0  0  0
    4.1380  -12.0542   21.3120 H   0  0  0  0  0  0  0  0  0  0  0  0
    3.5197  -12.3338   22.8391 H   0  0  0  0  0  0  0  0  0  0  0  0
    4.9499  -11.0937   22.4441 H   0  0  0  0  0  0  0  0  0  0  0  0
    2.0390   -8.1260   23.6072 H   0  0  0  0  0  0  0  0  0  0  0  0
    1.6461   -8.1099   22.0627 H   0  0  0  0  0  0  0  0  0  0  0  0
    3.4016   -8.1482   22.5527 H   0  0  0  0  0  0  0  0  0  0  0  0
    7.8787   -3.0889   21.0671 H   0  0  0  0  0  0  0  0  0  0  0  0
   10.9234   -4.6808   20.8602 H   0  0  0  0  0  0  0  0  0  0  0  0
   11.0627   -3.2458   22.0513 H   0  0  0  0  0  0  0  0  0  0  0  0
   12.5776   -5.0019   20.4982 H   0  0  0  0  0  0  0  0  0  0  0  0
   12.8149   -4.0757   21.9777 H   0  0  0  0  0  0  0  0  0  0  0  0
   14.4175   -2.2025   21.8464 H   0  0  0  0  0  0  0  0  0  0  0  0
   15.6614   -0.8886   17.2481 H   0  0  0  0  0  0  0  0  0  0  0  0
   14.5330   -1.9109   15.2704 H   0  0  0  0  0  0  0  0  0  0  0  0
   12.8463   -3.6910   15.5973 H   0  0  0  0  0  0  0  0  0  0  0  0
   12.3121   -4.5263   17.8444 H   0  0  0  0  0  0  0  0  0  0  0  0
    1.9221   -3.8815   26.8165 H   0  0  0  0  0  0  0  0  0  0  0  0
    1.4788   -3.7878   29.1889 H   0  0  0  0  0  0  0  0  0  0  0  0
    2.7753   -2.2406   30.6332 H   0  0  0  0  0  0  0  0  0  0  0  0
    4.2707   -0.5922   29.5510 H   0  0  0  0  0  0  0  0  0  0  0  0
  1  2  1  0
  2  3  1  0
  3  4  2  0
  4  5  1  0
  5  6  1  0
  6  7  1  0
  7  8  1  0
  8  9  2  0
  8 10  1  0
 10 11  1  0
 11 12  1  0
 11 13  1  0
 11 14  1  0
  6 15  1  0
 15 16  2  0
 15 17  1  0
 17 18  1  0
 18 19  1  0
 19 20  1  0
 20 21  1  0
 21 22  2  0
 22 23  1  0
 23 24  2  0
 24 25  1  0
 25 26  2  0
 26 27  1  0
 27 28  2  0
  4 29  1  0
 29 30  2  0
 30 31  1  0
 31 32  2  0
 32 33  1  0
 33 34  2  0
 34  2  1  0
 28 20  1  0
 34 29  1  0
 28 23  1  0
  1 35  1  0
  1 36  1  0
  1 37  1  0
  3 38  1  0
  5 39  1  0
  5 40  1  0
  6 41  1  0
  7 42  1  0
 12 43  1  0
 12 44  1  0
 12 45  1  0
 13 46  1  0
 13 47  1  0
 13 48  1  0
 14 49  1  0
 14 50  1  0
 14 51  1  0
 17 52  1  0
 18 53  1  0
 18 54  1  0
 19 55  1  0
 19 56  1  0
 21 57  1  0
 24 58  1  0
 25 59  1  0
 26 60  1  0
 27 61  1  0
 30 62  1  0
 31 63  1  0
 32 64  1  0
 33 65  1  0
M  END
>  <Energy>  (714) 
1337.4066324530756

>  <compound_id>  (714) 
8492

>  <target_id>  (714) 
1

>  <reference_id>  (714) 
103

>  <inspiration_ids>  (714) 
[40, 103]

>  <energy_score>  (714) 
1293.0838272085964

>  <distance_score>  (714) 
4.703157488624093

>  <path>  (714) 
/opt/xchem-fragalysis-2/maxwin/BulkDock/SCRATCH/511017/C8492-P103/C8492-P103.minimised.mol

>  <scratch_subdir>  (714) 
/opt/xchem-fragalysis-2/maxwin/BulkDock/SCRATCH/511017/C8492-P103

>  <fragmenstein_runtime>  (714) 
24.348814249038696

>  <fragmenstein_outcome>  (714) 
too moved

>  <fragmenstein_mode>  (714) 
expansion

>  <fragmenstein_error>  (714) 


$$$$
C8493-P40
     RDKit          3D

 39 42  0  0  0  0  0  0  0  0999 V2000
    5.0906   -1.8754   23.5386 C   0  0  0  0  0  0  0  0  0  0  0  0
    6.1594   -3.1336   23.2157 N   0  0  0  0  0  0  0  0  0  0  0  0
    7.2391   -3.6321   21.7968 C   0  0  0  0  0  0  0  0  0  0  0  0
    8.7726   -4.1060   20.7269 N   0  0  0  0  0  0  0  0  0  0  0  0
   10.6475   -4.3973   21.2518 C   0  0  0  0  0  0  0  0  0  0  0  0
   11.1341   -4.2182   22.3876 O   0  0  0  0  0  0  0  0  0  0  0  0
   11.7689   -5.0452   20.2719 C   0  0  0  0  0  0  0  0  0  0  0  0
   12.8437   -4.1816   19.6845 N   0  0  0  0  0  0  0  0  0  0  0  0
   12.9905   -3.9568   18.3238 C   0  0  0  0  0  0  0  0  0  0  0  0
   13.8692   -3.0260   18.0466 N   0  0  0  0  0  0  0  0  0  0  0  0
   14.3864   -2.6847   19.2597 C   0  0  0  0  0  0  0  0  0  0  0  0
   15.3700   -1.7288   19.5334 C   0  0  0  0  0  0  0  0  0  0  0  0
   15.7073   -1.4930   20.8643 C   0  0  0  0  0  0  0  0  0  0  0  0
   15.0849   -2.2014   21.8936 C   0  0  0  0  0  0  0  0  0  0  0  0
   14.1083   -3.1698   21.6383 C   0  0  0  0  0  0  0  0  0  0  0  0
   13.7750   -3.3897   20.3041 C   0  0  0  0  0  0  0  0  0  0  0  0
    6.8479   -5.0342   22.8426 C   0  0  0  0  0  0  0  0  0  0  0  0
    6.2589   -5.2651   24.1818 C   0  0  0  0  0  0  0  0  0  0  0  0
    5.9341   -6.3563   25.0185 C   0  0  0  0  0  0  0  0  0  0  0  0
    5.2778   -6.1205   26.2391 C   0  0  0  0  0  0  0  0  0  0  0  0
    4.9367   -4.8256   26.6157 C   0  0  0  0  0  0  0  0  0  0  0  0
    5.2169   -3.7482   25.7672 C   0  0  0  0  0  0  0  0  0  0  0  0
    5.8687   -4.0317   24.5321 C   0  0  0  0  0  0  0  0  0  0  0  0
    4.0996   -2.2264   23.8253 H   0  0  0  0  0  0  0  0  0  0  0  0
    5.4171   -1.4447   24.4908 H   0  0  0  0  0  0  0  0  0  0  0  0
    4.9659   -1.2328   22.6880 H   0  0  0  0  0  0  0  0  0  0  0  0
    8.6737   -4.2362   19.7946 H   0  0  0  0  0  0  0  0  0  0  0  0
   11.2011   -5.3688   19.4386 H   0  0  0  0  0  0  0  0  0  0  0  0
   12.2739   -5.8531   20.8059 H   0  0  0  0  0  0  0  0  0  0  0  0
   12.3992   -4.4669   17.5764 H   0  0  0  0  0  0  0  0  0  0  0  0
   15.8399   -1.1815   18.7250 H   0  0  0  0  0  0  0  0  0  0  0  0
   16.4606   -0.7471   21.1044 H   0  0  0  0  0  0  0  0  0  0  0  0
   15.3553   -1.9895   22.9266 H   0  0  0  0  0  0  0  0  0  0  0  0
   13.6169   -3.6918   22.4527 H   0  0  0  0  0  0  0  0  0  0  0  0
    6.8211   -5.9823   22.3328 H   0  0  0  0  0  0  0  0  0  0  0  0
    6.1866   -7.3683   24.7233 H   0  0  0  0  0  0  0  0  0  0  0  0
    5.0526   -6.9603   26.8891 H   0  0  0  0  0  0  0  0  0  0  0  0
    4.4517   -4.6442   27.5700 H   0  0  0  0  0  0  0  0  0  0  0  0
    4.9393   -2.7445   26.0626 H   0  0  0  0  0  0  0  0  0  0  0  0
  1  2  1  0
  2  3  1  0
  3  4  1  0
  4  5  1  0
  5  6  2  0
  5  7  1  0
  7  8  1  0
  8  9  1  0
  9 10  2  0
 10 11  1  0
 11 12  2  0
 12 13  1  0
 13 14  2  0
 14 15  1  0
 15 16  2  0
  3 17  2  0
 17 18  1  0
 18 19  2  0
 19 20  1  0
 20 21  2  0
 21 22  1  0
 22 23  2  0
 23  2  1  0
 16  8  1  0
 23 18  1  0
 16 11  1  0
  1 24  1  0
  1 25  1  0
  1 26  1  0
  4 27  1  0
  7 28  1  0
  7 29  1  0
  9 30  1  0
 12 31  1  0
 13 32  1  0
 14 33  1  0
 15 34  1  0
 17 35  1  0
 19 36  1  0
 20 37  1  0
 21 38  1  0
 22 39  1  0
M  END
>  <Energy>  (715) 
565.3372985308456

>  <compound_id>  (715) 
8493

>  <target_id>  (715) 
1

>  <reference_id>  (715) 
40

>  <inspiration_ids>  (715) 
[40, 103]

>  <energy_score>  (715) 
487.55967321416676

>  <distance_score>  (715) 
6.488605071898202

>  <path>  (715) 
/opt/xchem-fragalysis-2/maxwin/BulkDock/SCRATCH/511017/C8493-P40/C8493-P40.minimised.mol

>  <scratch_subdir>  (715) 
/opt/xchem-fragalysis-2/maxwin/BulkDock/SCRATCH/511017/C8493-P40

>  <fragmenstein_runtime>  (715) 
7.614304542541504

>  <fragmenstein_outcome>  (715) 
too moved

>  <fragmenstein_mode>  (715) 
expansion

>  <fragmenstein_error>  (715) 


$$$$
C8493-P103
     RDKit          3D

 39 42  0  0  0  0  0  0  0  0999 V2000
    5.0044   -0.7748   23.1917 C   0  0  0  0  0  0  0  0  0  0  0  0
    5.8807   -2.3046   23.3634 N   0  0  0  0  0  0  0  0  0  0  0  0
    7.1046   -3.6108   22.5386 C   0  0  0  0  0  0  0  0  0  0  0  0
    8.6669   -3.5780   21.2424 N   0  0  0  0  0  0  0  0  0  0  0  0
   10.7734   -3.3992   21.5946 C   0  0  0  0  0  0  0  0  0  0  0  0
   11.2391   -3.1622   22.7723 O   0  0  0  0  0  0  0  0  0  0  0  0
   12.1649   -3.7237   20.4707 C   0  0  0  0  0  0  0  0  0  0  0  0
   13.2804   -2.9695   19.8619 N   0  0  0  0  0  0  0  0  0  0  0  0
   14.2398   -2.2197   20.4908 C   0  0  0  0  0  0  0  0  0  0  0  0
   15.0016   -1.5816   19.6275 N   0  0  0  0  0  0  0  0  0  0  0  0
   14.5690   -1.9765   18.3877 C   0  0  0  0  0  0  0  0  0  0  0  0
   14.9692   -1.5374   17.1166 C   0  0  0  0  0  0  0  0  0  0  0  0
   14.3114   -2.0396   15.9893 C   0  0  0  0  0  0  0  0  0  0  0  0
   13.3097   -2.9973   16.1245 C   0  0  0  0  0  0  0  0  0  0  0  0
   12.9503   -3.5030   17.3749 C   0  0  0  0  0  0  0  0  0  0  0  0
   13.5584   -2.9294   18.4974 C   0  0  0  0  0  0  0  0  0  0  0  0
    5.5741   -2.6909   22.1663 C   0  0  0  0  0  0  0  0  0  0  0  0
    4.5427   -2.6081   23.8615 C   0  0  0  0  0  0  0  0  0  0  0  0
    3.3293   -2.7206   24.4712 C   0  0  0  0  0  0  0  0  0  0  0  0
    3.2067   -2.3682   25.8688 C   0  0  0  0  0  0  0  0  0  0  0  0
    4.2322   -1.8028   26.5973 C   0  0  0  0  0  0  0  0  0  0  0  0
    5.4591   -1.7116   25.9770 C   0  0  0  0  0  0  0  0  0  0  0  0
    5.6023   -2.4199   24.7230 C   0  0  0  0  0  0  0  0  0  0  0  0
    4.8015   -0.6118   22.1372 H   0  0  0  0  0  0  0  0  0  0  0  0
    4.3667   -0.7078   24.1003 H   0  0  0  0  0  0  0  0  0  0  0  0
    5.4310   -0.0150   23.7361 H   0  0  0  0  0  0  0  0  0  0  0  0
    8.5028   -3.8602   20.2633 H   0  0  0  0  0  0  0  0  0  0  0  0
   12.1863   -4.7566   20.0564 H   0  0  0  0  0  0  0  0  0  0  0  0
   12.7795   -4.0696   21.3374 H   0  0  0  0  0  0  0  0  0  0  0  0
   14.2988   -2.1355   21.5698 H   0  0  0  0  0  0  0  0  0  0  0  0
   15.7497   -0.7900   17.0246 H   0  0  0  0  0  0  0  0  0  0  0  0
   14.5848   -1.6752   15.0018 H   0  0  0  0  0  0  0  0  0  0  0  0
   12.7809   -3.3474   15.2416 H   0  0  0  0  0  0  0  0  0  0  0  0
   12.1700   -4.2480   17.4522 H   0  0  0  0  0  0  0  0  0  0  0  0
    5.3558   -2.8930   21.1075 H   0  0  0  0  0  0  0  0  0  0  0  0
    2.6179   -3.0763   23.7564 H   0  0  0  0  0  0  0  0  0  0  0  0
    2.2749   -2.4902   26.4101 H   0  0  0  0  0  0  0  0  0  0  0  0
    4.0965   -1.4915   27.6246 H   0  0  0  0  0  0  0  0  0  0  0  0
    6.3423   -1.4332   26.5452 H   0  0  0  0  0  0  0  0  0  0  0  0
  1  2  1  0
  2  3  1  0
  3  4  1  0
  4  5  1  0
  5  6  2  0
  5  7  1  0
  7  8  1  0
  8  9  1  0
  9 10  2  0
 10 11  1  0
 11 12  2  0
 12 13  1  0
 13 14  2  0
 14 15  1  0
 15 16  2  0
  3 17  2  0
 17 18  1  0
 18 19  2  0
 19 20  1  0
 20 21  2  0
 21 22  1  0
 22 23  2  0
 23  2  1  0
 16  8  1  0
 23 18  1  0
 16 11  1  0
  1 24  1  0
  1 25  1  0
  1 26  1  0
  4 27  1  0
  7 28  1  0
  7 29  1  0
  9 30  1  0
 12 31  1  0
 13 32  1  0
 14 33  1  0
 15 34  1  0
 17 35  1  0
 19 36  1  0
 20 37  1  0
 21 38  1  0
 22 39  1  0
M  END
>  <Energy>  (716) 
1123.7085155734592

>  <compound_id>  (716) 
8493

>  <target_id>  (716) 
1

>  <reference_id>  (716) 
103

>  <inspiration_ids>  (716) 
[40, 103]

>  <energy_score>  (716) 
1045.9308902567873

>  <distance_score>  (716) 
5.8517283604334045

>  <path>  (716) 
/opt/xchem-fragalysis-2/maxwin/BulkDock/SCRATCH/511017/C8493-P103/C8493-P103.minimised.mol

>  <scratch_subdir>  (716) 
/opt/xchem-fragalysis-2/maxwin/BulkDock/SCRATCH/511017/C8493-P103

>  <fragmenstein_runtime>  (716) 
7.420229434967041

>  <fragmenstein_outcome>  (716) 
too moved

>  <fragmenstein_mode>  (716) 
expansion

>  <fragmenstein_error>  (716) 


$$$$
C8495-P40
     RDKit          3D

 40 43  0  0  0  0  0  0  0  0999 V2000
   12.2037   -2.8615   26.7756 O   0  0  0  0  0  0  0  0  0  0  0  0
   11.7642   -3.8107   25.7914 C   0  0  0  0  0  0  0  0  0  0  0  0
   10.4643   -4.5309   26.3598 C   0  0  0  0  0  0  0  0  0  0  0  0
    9.2673   -3.7270   26.4074 O   0  0  0  0  0  0  0  0  0  0  0  0
    8.3375   -4.0757   27.4065 C   0  0  0  0  0  0  0  0  0  0  0  0
    8.5631   -3.5533   28.6918 C   0  0  0  0  0  0  0  0  0  0  0  0
    7.6191   -3.6781   29.7165 C   0  0  0  0  0  0  0  0  0  0  0  0
    6.3963   -4.3103   29.4991 C   0  0  0  0  0  0  0  0  0  0  0  0
    6.1541   -4.8133   28.2179 C   0  0  0  0  0  0  0  0  0  0  0  0
    5.0247   -5.4375   27.7347 N   0  0  0  0  0  0  0  0  0  0  0  0
    5.1864   -5.7618   26.4221 C   0  0  0  0  0  0  0  0  0  0  0  0
    6.4354   -5.3203   26.0457 C   0  0  0  0  0  0  0  0  0  0  0  0
    7.0826   -4.7173   27.1663 C   0  0  0  0  0  0  0  0  0  0  0  0
   11.6368   -3.1265   24.3999 C   0  0  0  0  0  0  0  0  0  0  0  0
   12.8631   -2.7592   23.6763 N   0  0  0  0  0  0  0  0  0  0  0  0
   13.6063   -1.6324   23.9467 C   0  0  0  0  0  0  0  0  0  0  0  0
   14.4722   -1.3541   22.9976 N   0  0  0  0  0  0  0  0  0  0  0  0
   14.2474   -2.2893   22.0235 C   0  0  0  0  0  0  0  0  0  0  0  0
   14.8375   -2.3928   20.7501 C   0  0  0  0  0  0  0  0  0  0  0  0
   14.4440   -3.4271   19.9003 C   0  0  0  0  0  0  0  0  0  0  0  0
   13.4874   -4.3458   20.3205 C   0  0  0  0  0  0  0  0  0  0  0  0
   12.8806   -4.2584   21.5847 C   0  0  0  0  0  0  0  0  0  0  0  0
   13.2750   -3.2100   22.4264 C   0  0  0  0  0  0  0  0  0  0  0  0
   13.1250   -2.6236   26.5717 H   0  0  0  0  0  0  0  0  0  0  0  0
   12.5450   -4.5794   25.7333 H   0  0  0  0  0  0  0  0  0  0  0  0
   10.2458   -5.3959   25.7239 H   0  0  0  0  0  0  0  0  0  0  0  0
   10.7026   -4.8976   27.3665 H   0  0  0  0  0  0  0  0  0  0  0  0
    9.4850   -3.0064   28.8810 H   0  0  0  0  0  0  0  0  0  0  0  0
    7.8379   -3.2510   30.6926 H   0  0  0  0  0  0  0  0  0  0  0  0
    5.6613   -4.3848   30.2927 H   0  0  0  0  0  0  0  0  0  0  0  0
    4.1963   -5.6094   28.2826 H   0  0  0  0  0  0  0  0  0  0  0  0
    4.4142   -6.2613   25.8530 H   0  0  0  0  0  0  0  0  0  0  0  0
    6.8326   -5.4084   25.0480 H   0  0  0  0  0  0  0  0  0  0  0  0
   11.0592   -2.2035   24.5102 H   0  0  0  0  0  0  0  0  0  0  0  0
   11.1071   -3.8000   23.7376 H   0  0  0  0  0  0  0  0  0  0  0  0
   13.4362   -1.0282   24.8280 H   0  0  0  0  0  0  0  0  0  0  0  0
   15.5861   -1.6703   20.4456 H   0  0  0  0  0  0  0  0  0  0  0  0
   14.8881   -3.5233   18.9131 H   0  0  0  0  0  0  0  0  0  0  0  0
   13.1934   -5.1382   19.6378 H   0  0  0  0  0  0  0  0  0  0  0  0
   12.1171   -4.9698   21.8696 H   0  0  0  0  0  0  0  0  0  0  0  0
  1  2  1  0
  2  3  1  0
  3  4  1  0
  4  5  1  0
  5  6  2  0
  6  7  1  0
  7  8  2  0
  8  9  1  0
  9 10  1  0
 10 11  1  0
 11 12  2  0
 12 13  1  0
  2 14  1  0
 14 15  1  0
 15 16  1  0
 16 17  2  0
 17 18  1  0
 18 19  2  0
 19 20  1  0
 20 21  2  0
 21 22  1  0
 22 23  2  0
 13  5  1  0
 23 15  1  0
 13  9  2  0
 23 18  1  0
  1 24  1  0
  2 25  1  0
  3 26  1  0
  3 27  1  0
  6 28  1  0
  7 29  1  0
  8 30  1  0
 10 31  1  0
 11 32  1  0
 12 33  1  0
 14 34  1  0
 14 35  1  0
 16 36  1  0
 19 37  1  0
 20 38  1  0
 21 39  1  0
 22 40  1  0
M  END
>  <Energy>  (717) 
75.834304299850828

>  <compound_id>  (717) 
8495

>  <target_id>  (717) 
1

>  <reference_id>  (717) 
40

>  <inspiration_ids>  (717) 
[40, 103]

>  <energy_score>  (717) 
-26.295676829468903

>  <distance_score>  (717) 
7.041404629118508

>  <path>  (717) 
/opt/xchem-fragalysis-2/maxwin/BulkDock/SCRATCH/511017/C8495-P40/C8495-P40.minimised.mol

>  <scratch_subdir>  (717) 
/opt/xchem-fragalysis-2/maxwin/BulkDock/SCRATCH/511017/C8495-P40

>  <fragmenstein_runtime>  (717) 
5.588791131973267

>  <fragmenstein_outcome>  (717) 
too moved

>  <fragmenstein_mode>  (717) 
expansion

>  <fragmenstein_error>  (717) 


$$$$
C8495-P103
     RDKit          3D

 40 43  0  0  0  0  0  0  0  0999 V2000
   13.7721   -2.9195   26.2392 O   0  0  0  0  0  0  0  0  0  0  0  0
   12.7374   -2.5208   25.3247 C   0  0  0  0  0  0  0  0  0  0  0  0
   11.3478   -2.6210   26.0694 C   0  0  0  0  0  0  0  0  0  0  0  0
   11.0427   -3.9156   26.6210 O   0  0  0  0  0  0  0  0  0  0  0  0
    9.8626   -4.0531   27.4085 C   0  0  0  0  0  0  0  0  0  0  0  0
    9.7650   -5.3137   28.0394 C   0  0  0  0  0  0  0  0  0  0  0  0
    8.6865   -5.6691   28.8584 C   0  0  0  0  0  0  0  0  0  0  0  0
    7.6380   -4.7843   29.0807 C   0  0  0  0  0  0  0  0  0  0  0  0
    7.7117   -3.5402   28.4478 C   0  0  0  0  0  0  0  0  0  0  0  0
    6.7819   -2.5218   28.4581 N   0  0  0  0  0  0  0  0  0  0  0  0
    7.2253   -1.4744   27.7085 C   0  0  0  0  0  0  0  0  0  0  0  0
    8.4491   -1.8270   27.1885 C   0  0  0  0  0  0  0  0  0  0  0  0
    8.7849   -3.1436   27.6230 C   0  0  0  0  0  0  0  0  0  0  0  0
   12.9390   -3.2842   23.9723 C   0  0  0  0  0  0  0  0  0  0  0  0
   13.8848   -2.7313   22.9829 N   0  0  0  0  0  0  0  0  0  0  0  0
   14.6947   -1.6334   23.1269 C   0  0  0  0  0  0  0  0  0  0  0  0
   15.2460   -1.2563   21.9924 N   0  0  0  0  0  0  0  0  0  0  0  0
   14.8126   -2.1629   21.0624 C   0  0  0  0  0  0  0  0  0  0  0  0
   15.0672   -2.2072   19.6793 C   0  0  0  0  0  0  0  0  0  0  0  0
   14.5020   -3.2314   18.9154 C   0  0  0  0  0  0  0  0  0  0  0  0
   13.7064   -4.1978   19.5259 C   0  0  0  0  0  0  0  0  0  0  0  0
   13.4434   -4.1756   20.9049 C   0  0  0  0  0  0  0  0  0  0  0  0
   14.0062   -3.1359   21.6553 C   0  0  0  0  0  0  0  0  0  0  0  0
   13.4225   -3.6796   26.7426 H   0  0  0  0  0  0  0  0  0  0  0  0
   12.8792   -1.4505   25.1380 H   0  0  0  0  0  0  0  0  0  0  0  0
   11.3927   -1.9167   26.9096 H   0  0  0  0  0  0  0  0  0  0  0  0
   10.5688   -2.3006   25.3809 H   0  0  0  0  0  0  0  0  0  0  0  0
   10.5698   -6.0307   27.8900 H   0  0  0  0  0  0  0  0  0  0  0  0
    8.6788   -6.6471   29.3316 H   0  0  0  0  0  0  0  0  0  0  0  0
    6.7976   -5.0479   29.7121 H   0  0  0  0  0  0  0  0  0  0  0  0
    5.8795   -2.5692   28.9087 H   0  0  0  0  0  0  0  0  0  0  0  0
    6.6239   -0.5847   27.5825 H   0  0  0  0  0  0  0  0  0  0  0  0
    9.0288   -1.1901   26.5399 H   0  0  0  0  0  0  0  0  0  0  0  0
   11.9835   -3.3460   23.4527 H   0  0  0  0  0  0  0  0  0  0  0  0
   13.2960   -4.3019   24.1697 H   0  0  0  0  0  0  0  0  0  0  0  0
   14.8393   -1.1322   24.0746 H   0  0  0  0  0  0  0  0  0  0  0  0
   15.6908   -1.4452   19.2255 H   0  0  0  0  0  0  0  0  0  0  0  0
   14.6812   -3.2663   17.8443 H   0  0  0  0  0  0  0  0  0  0  0  0
   13.2462   -4.9663   18.9143 H   0  0  0  0  0  0  0  0  0  0  0  0
   12.7881   -4.9088   21.3564 H   0  0  0  0  0  0  0  0  0  0  0  0
  1  2  1  0
  2  3  1  0
  3  4  1  0
  4  5  1  0
  5  6  2  0
  6  7  1  0
  7  8  2  0
  8  9  1  0
  9 10  1  0
 10 11  1  0
 11 12  2  0
 12 13  1  0
  2 14  1  0
 14 15  1  0
 15 16  1  0
 16 17  2  0
 17 18  1  0
 18 19  2  0
 19 20  1  0
 20 21  2  0
 21 22  1  0
 22 23  2  0
 13  5  1  0
 23 15  1  0
 13  9  2  0
 23 18  1  0
  1 24  1  0
  2 25  1  0
  3 26  1  0
  3 27  1  0
  6 28  1  0
  7 29  1  0
  8 30  1  0
 10 31  1  0
 11 32  1  0
 12 33  1  0
 14 34  1  0
 14 35  1  0
 16 36  1  0
 19 37  1  0
 20 38  1  0
 21 39  1  0
 22 40  1  0
M  END
>  <Energy>  (718) 
73.704197961941816

>  <compound_id>  (718) 
8495

>  <target_id>  (718) 
1

>  <reference_id>  (718) 
103

>  <inspiration_ids>  (718) 
[40, 103]

>  <energy_score>  (718) 
-28.425783167376323

>  <distance_score>  (718) 
7.574883202794158

>  <path>  (718) 
/opt/xchem-fragalysis-2/maxwin/BulkDock/SCRATCH/511017/C8495-P103/C8495-P103.minimised.mol

>  <scratch_subdir>  (718) 
/opt/xchem-fragalysis-2/maxwin/BulkDock/SCRATCH/511017/C8495-P103

>  <fragmenstein_runtime>  (718) 
7.006393909454346

>  <fragmenstein_outcome>  (718) 
too moved

>  <fragmenstein_mode>  (718) 
expansion

>  <fragmenstein_error>  (718) 


$$$$
C8496-P40
     RDKit          3D

 39 42  0  0  0  0  0  0  0  0999 V2000
   12.2239   -5.0728   25.4886 O   0  0  0  0  0  0  0  0  0  0  0  0
   11.3540   -4.2591   25.3510 C   0  0  0  0  0  0  0  0  0  0  0  0
   11.6055   -3.0165   24.4663 C   0  0  0  0  0  0  0  0  0  0  0  0
   12.8968   -2.8429   23.7645 N   0  0  0  0  0  0  0  0  0  0  0  0
   13.7540   -1.8028   24.0595 C   0  0  0  0  0  0  0  0  0  0  0  0
   14.5684   -1.5137   23.0700 N   0  0  0  0  0  0  0  0  0  0  0  0
   14.2525   -2.4018   22.0786 C   0  0  0  0  0  0  0  0  0  0  0  0
   14.7975   -2.5013   20.7850 C   0  0  0  0  0  0  0  0  0  0  0  0
   14.3349   -3.5000   19.9300 C   0  0  0  0  0  0  0  0  0  0  0  0
   13.3514   -4.3818   20.3656 C   0  0  0  0  0  0  0  0  0  0  0  0
   12.7762   -4.2873   21.6440 C   0  0  0  0  0  0  0  0  0  0  0  0
   13.2424   -3.2776   22.4908 C   0  0  0  0  0  0  0  0  0  0  0  0
    9.9843   -4.2175   25.8958 N   0  0  0  0  0  0  0  0  0  0  0  0
    9.2373   -5.1976   26.6876 C   0  0  0  0  0  0  0  0  0  0  0  0
    7.8736   -4.7479   27.2303 C   0  0  0  0  0  0  0  0  0  0  0  0
    7.8314   -3.7275   28.2106 C   0  0  0  0  0  0  0  0  0  0  0  0
    6.6385   -3.2853   28.7939 C   0  0  0  0  0  0  0  0  0  0  0  0
    5.4136   -3.8351   28.4295 C   0  0  0  0  0  0  0  0  0  0  0  0
    5.4347   -4.8512   27.4721 C   0  0  0  0  0  0  0  0  0  0  0  0
    4.3797   -5.5502   26.9291 N   0  0  0  0  0  0  0  0  0  0  0  0
    4.8331   -6.4815   26.0432 C   0  0  0  0  0  0  0  0  0  0  0  0
    6.2046   -6.3666   25.9881 C   0  0  0  0  0  0  0  0  0  0  0  0
    6.6138   -5.3250   26.8771 C   0  0  0  0  0  0  0  0  0  0  0  0
   11.4508   -2.1213   25.0801 H   0  0  0  0  0  0  0  0  0  0  0  0
   10.8729   -3.0173   23.6702 H   0  0  0  0  0  0  0  0  0  0  0  0
   13.7000   -1.2631   24.9955 H   0  0  0  0  0  0  0  0  0  0  0  0
   15.5764   -1.8138   20.4765 H   0  0  0  0  0  0  0  0  0  0  0  0
   14.7509   -3.6048   18.9317 H   0  0  0  0  0  0  0  0  0  0  0  0
   13.0114   -5.1539   19.6838 H   0  0  0  0  0  0  0  0  0  0  0  0
   12.0056   -4.9809   21.9479 H   0  0  0  0  0  0  0  0  0  0  0  0
    9.4929   -3.4182   25.5035 H   0  0  0  0  0  0  0  0  0  0  0  0
    9.1150   -6.0811   26.0528 H   0  0  0  0  0  0  0  0  0  0  0  0
    9.8794   -5.5042   27.5213 H   0  0  0  0  0  0  0  0  0  0  0  0
    8.7655   -3.2646   28.5285 H   0  0  0  0  0  0  0  0  0  0  0  0
    6.6712   -2.4907   29.5361 H   0  0  0  0  0  0  0  0  0  0  0  0
    4.4891   -3.4782   28.8695 H   0  0  0  0  0  0  0  0  0  0  0  0
    3.4131   -5.3813   27.1602 H   0  0  0  0  0  0  0  0  0  0  0  0
    4.1608   -7.1355   25.5028 H   0  0  0  0  0  0  0  0  0  0  0  0
    6.8430   -6.9649   25.3516 H   0  0  0  0  0  0  0  0  0  0  0  0
  1  2  2  0
  2  3  1  0
  3  4  1  0
  4  5  1  0
  5  6  2  0
  6  7  1  0
  7  8  2  0
  8  9  1  0
  9 10  2  0
 10 11  1  0
 11 12  2  0
  2 13  1  0
 13 14  1  0
 14 15  1  0
 15 16  2  0
 16 17  1  0
 17 18  2  0
 18 19  1  0
 19 20  1  0
 20 21  1  0
 21 22  2  0
 22 23  1  0
 12  4  1  0
 23 15  1  0
 12  7  1  0
 23 19  2  0
  3 24  1  0
  3 25  1  0
  5 26  1  0
  8 27  1  0
  9 28  1  0
 10 29  1  0
 11 30  1  0
 13 31  1  0
 14 32  1  0
 14 33  1  0
 16 34  1  0
 17 35  1  0
 18 36  1  0
 20 37  1  0
 21 38  1  0
 22 39  1  0
M  END
>  <Energy>  (719) 
34.228419874069175

>  <compound_id>  (719) 
8496

>  <target_id>  (719) 
1

>  <reference_id>  (719) 
40

>  <inspiration_ids>  (719) 
[40, 103]

>  <energy_score>  (719) 
-8.116416337715748

>  <distance_score>  (719) 
6.845867147373038

>  <path>  (719) 
/opt/xchem-fragalysis-2/maxwin/BulkDock/SCRATCH/511017/C8496-P40/C8496-P40.minimised.mol

>  <scratch_subdir>  (719) 
/opt/xchem-fragalysis-2/maxwin/BulkDock/SCRATCH/511017/C8496-P40

>  <fragmenstein_runtime>  (719) 
8.301680326461792

>  <fragmenstein_outcome>  (719) 
too moved

>  <fragmenstein_mode>  (719) 
expansion

>  <fragmenstein_error>  (719) 


$$$$
C8496-P103
     RDKit          3D

 39 42  0  0  0  0  0  0  0  0999 V2000
    9.4149    0.3265   23.4764 O   0  0  0  0  0  0  0  0  0  0  0  0
    9.6524    0.1847   22.3038 C   0  0  0  0  0  0  0  0  0  0  0  0
   11.2739    0.7905   21.9821 C   0  0  0  0  0  0  0  0  0  0  0  0
   11.5929    2.2364   21.9572 N   0  0  0  0  0  0  0  0  0  0  0  0
   10.8420    3.2884   22.3681 C   0  0  0  0  0  0  0  0  0  0  0  0
   11.2612    4.4048   21.8097 N   0  0  0  0  0  0  0  0  0  0  0  0
   12.3940    4.0666   21.0966 C   0  0  0  0  0  0  0  0  0  0  0  0
   13.1935    4.8243   20.2283 C   0  0  0  0  0  0  0  0  0  0  0  0
   14.2951    4.2154   19.6049 C   0  0  0  0  0  0  0  0  0  0  0  0
   14.6352    2.8919   19.8783 C   0  0  0  0  0  0  0  0  0  0  0  0
   13.8630    2.1265   20.7519 C   0  0  0  0  0  0  0  0  0  0  0  0
   12.7125    2.7318   21.2965 C   0  0  0  0  0  0  0  0  0  0  0  0
    8.2791   -0.4832   21.0145 N   0  0  0  0  0  0  0  0  0  0  0  0
    6.3843   -1.1631   21.3279 C   0  0  0  0  0  0  0  0  0  0  0  0
    5.3484   -1.5965   23.0971 C   0  0  0  0  0  0  0  0  0  0  0  0
    5.7968   -2.2796   24.3835 C   0  0  0  0  0  0  0  0  0  0  0  0
    6.1586   -1.7903   25.9106 C   0  0  0  0  0  0  0  0  0  0  0  0
    5.5828   -0.7129   26.5003 C   0  0  0  0  0  0  0  0  0  0  0  0
    4.5780   -0.4276   25.6020 C   0  0  0  0  0  0  0  0  0  0  0  0
    3.2980   -0.1911   26.0688 N   0  0  0  0  0  0  0  0  0  0  0  0
    2.8391   -1.4826   26.0985 C   0  0  0  0  0  0  0  0  0  0  0  0
    3.3872   -2.0292   24.9439 C   0  0  0  0  0  0  0  0  0  0  0  0
    4.4273   -1.1127   24.2900 C   0  0  0  0  0  0  0  0  0  0  0  0
   11.6471    0.6050   23.0163 H   0  0  0  0  0  0  0  0  0  0  0  0
   12.1151    0.3204   21.5075 H   0  0  0  0  0  0  0  0  0  0  0  0
    9.9776    3.1910   23.0127 H   0  0  0  0  0  0  0  0  0  0  0  0
   12.9409    5.8596   20.0301 H   0  0  0  0  0  0  0  0  0  0  0  0
   14.9029    4.7988   18.9175 H   0  0  0  0  0  0  0  0  0  0  0  0
   15.5087    2.4523   19.4028 H   0  0  0  0  0  0  0  0  0  0  0  0
   14.1166    1.0890   20.9417 H   0  0  0  0  0  0  0  0  0  0  0  0
    8.6918   -0.6066   20.1223 H   0  0  0  0  0  0  0  0  0  0  0  0
    5.8825   -0.2190   21.0676 H   0  0  0  0  0  0  0  0  0  0  0  0
    6.2129   -2.1589   20.8788 H   0  0  0  0  0  0  0  0  0  0  0  0
    6.3172   -3.2492   24.2663 H   0  0  0  0  0  0  0  0  0  0  0  0
    6.9657   -2.2955   26.4441 H   0  0  0  0  0  0  0  0  0  0  0  0
    5.6757   -0.4017   27.5228 H   0  0  0  0  0  0  0  0  0  0  0  0
    3.1057    0.4358   26.8317 H   0  0  0  0  0  0  0  0  0  0  0  0
    2.1213   -1.8411   26.8212 H   0  0  0  0  0  0  0  0  0  0  0  0
    3.1959   -3.0098   24.5516 H   0  0  0  0  0  0  0  0  0  0  0  0
  1  2  2  0
  2  3  1  0
  3  4  1  0
  4  5  1  0
  5  6  2  0
  6  7  1  0
  7  8  2  0
  8  9  1  0
  9 10  2  0
 10 11  1  0
 11 12  2  0
  2 13  1  0
 13 14  1  0
 14 15  1  0
 15 16  2  0
 16 17  1  0
 17 18  2  0
 18 19  1  0
 19 20  1  0
 20 21  1  0
 21 22  2  0
 22 23  1  0
 12  4  1  0
 23 15  1  0
 12  7  1  0
 23 19  2  0
  3 24  1  0
  3 25  1  0
  5 26  1  0
  8 27  1  0
  9 28  1  0
 10 29  1  0
 11 30  1  0
 13 31  1  0
 14 32  1  0
 14 33  1  0
 16 34  1  0
 17 35  1  0
 18 36  1  0
 20 37  1  0
 21 38  1  0
 22 39  1  0
M  END
>  <Energy>  (720) 
633.5094986562558

>  <compound_id>  (720) 
8496

>  <target_id>  (720) 
1

>  <reference_id>  (720) 
103

>  <inspiration_ids>  (720) 
[40, 103]

>  <energy_score>  (720) 
591.1646624444744

>  <distance_score>  (720) 
7.461164763295527

>  <path>  (720) 
/opt/xchem-fragalysis-2/maxwin/BulkDock/SCRATCH/511017/C8496-P103/C8496-P103.minimised.mol

>  <scratch_subdir>  (720) 
/opt/xchem-fragalysis-2/maxwin/BulkDock/SCRATCH/511017/C8496-P103

>  <fragmenstein_runtime>  (720) 
8.333455324172974

>  <fragmenstein_outcome>  (720) 
too moved

>  <fragmenstein_mode>  (720) 
expansion

>  <fragmenstein_error>  (720) 


$$$$
C8497-P40
     RDKit          3D

 44 47  0  0  0  0  0  0  0  0999 V2000
    7.4446   -0.9714   26.7587 C   0  0  0  0  0  0  0  0  0  0  0  0
    6.9200   -2.3064   27.1599 C   0  0  0  0  0  0  0  0  0  0  0  0
    5.6290   -2.3911   27.6225 N   0  0  0  0  0  0  0  0  0  0  0  0
    5.2951   -3.6810   27.9310 C   0  0  0  0  0  0  0  0  0  0  0  0
    4.0877   -4.1917   28.4324 C   0  0  0  0  0  0  0  0  0  0  0  0
    4.0089   -5.5648   28.6566 C   0  0  0  0  0  0  0  0  0  0  0  0
    5.0999   -6.3836   28.3830 C   0  0  0  0  0  0  0  0  0  0  0  0
    6.2976   -5.8511   27.8772 C   0  0  0  0  0  0  0  0  0  0  0  0
    6.4164   -4.4631   27.6434 C   0  0  0  0  0  0  0  0  0  0  0  0
    7.4773   -3.5879   27.1490 C   0  0  0  0  0  0  0  0  0  0  0  0
    8.8462   -3.9917   26.6737 C   0  0  0  0  0  0  0  0  0  0  0  0
    9.1354   -5.1773   26.4674 O   0  0  0  0  0  0  0  0  0  0  0  0
   10.0253   -2.9762   26.3726 C   0  0  0  0  0  0  0  0  0  0  0  0
   10.1091   -2.0086   27.0707 O   0  0  0  0  0  0  0  0  0  0  0  0
   10.8339   -3.4002   25.2372 N   0  0  0  0  0  0  0  0  0  0  0  0
   12.0661   -2.8205   24.6537 C   0  0  0  0  0  0  0  0  0  0  0  0
   12.5013   -3.3870   23.2661 C   0  0  0  0  0  0  0  0  0  0  0  0
   13.4853   -2.6763   22.4529 N   0  0  0  0  0  0  0  0  0  0  0  0
   14.1199   -1.4965   22.7368 C   0  0  0  0  0  0  0  0  0  0  0  0
   14.8064   -1.0357   21.7121 N   0  0  0  0  0  0  0  0  0  0  0  0
   14.6284   -1.9554   20.7133 C   0  0  0  0  0  0  0  0  0  0  0  0
   15.0937   -1.9318   19.3871 C   0  0  0  0  0  0  0  0  0  0  0  0
   14.7215   -2.9622   18.5202 C   0  0  0  0  0  0  0  0  0  0  0  0
   13.9246   -4.0085   18.9774 C   0  0  0  0  0  0  0  0  0  0  0  0
   13.4729   -4.0659   20.3030 C   0  0  0  0  0  0  0  0  0  0  0  0
   13.8269   -3.0099   21.1503 C   0  0  0  0  0  0  0  0  0  0  0  0
    8.0670   -1.0361   25.8642 H   0  0  0  0  0  0  0  0  0  0  0  0
    8.0296   -0.5324   27.5725 H   0  0  0  0  0  0  0  0  0  0  0  0
    6.6281   -0.2784   26.5264 H   0  0  0  0  0  0  0  0  0  0  0  0
    5.0010   -1.6048   27.7165 H   0  0  0  0  0  0  0  0  0  0  0  0
    3.2442   -3.5403   28.6384 H   0  0  0  0  0  0  0  0  0  0  0  0
    3.0888   -5.9906   29.0421 H   0  0  0  0  0  0  0  0  0  0  0  0
    5.0452   -7.4539   28.5501 H   0  0  0  0  0  0  0  0  0  0  0  0
    7.1357   -6.5101   27.6633 H   0  0  0  0  0  0  0  0  0  0  0  0
   10.5253   -4.3196   24.9356 H   0  0  0  0  0  0  0  0  0  0  0  0
   12.8662   -2.9868   25.3837 H   0  0  0  0  0  0  0  0  0  0  0  0
   11.9028   -1.7398   24.6174 H   0  0  0  0  0  0  0  0  0  0  0  0
   12.9035   -4.3968   23.4147 H   0  0  0  0  0  0  0  0  0  0  0  0
   11.6160   -3.4900   22.6325 H   0  0  0  0  0  0  0  0  0  0  0  0
   14.0251   -0.9928   23.6897 H   0  0  0  0  0  0  0  0  0  0  0  0
   15.7150   -1.1107   19.0481 H   0  0  0  0  0  0  0  0  0  0  0  0
   15.0602   -2.9530   17.4878 H   0  0  0  0  0  0  0  0  0  0  0  0
   13.6404   -4.7996   18.2880 H   0  0  0  0  0  0  0  0  0  0  0  0
   12.8311   -4.8767   20.6284 H   0  0  0  0  0  0  0  0  0  0  0  0
  1  2  1  0
  2  3  1  0
  3  4  1  0
  4  5  2  0
  5  6  1  0
  6  7  2  0
  7  8  1  0
  8  9  2  0
  9 10  1  0
 10 11  1  0
 11 12  2  0
 11 13  1  0
 13 14  2  0
 13 15  1  0
 15 16  1  0
 16 17  1  0
 17 18  1  0
 18 19  1  0
 19 20  2  0
 20 21  1  0
 21 22  2  0
 22 23  1  0
 23 24  2  0
 24 25  1  0
 25 26  2  0
 10  2  2  0
 26 18  1  0
  9  4  1  0
 26 21  1  0
  1 27  1  0
  1 28  1  0
  1 29  1  0
  3 30  1  0
  5 31  1  0
  6 32  1  0
  7 33  1  0
  8 34  1  0
 15 35  1  0
 16 36  1  0
 16 37  1  0
 17 38  1  0
 17 39  1  0
 19 40  1  0
 22 41  1  0
 23 42  1  0
 24 43  1  0
 25 44  1  0
M  END
>  <Energy>  (721) 
111.78437467940145

>  <compound_id>  (721) 
8497

>  <target_id>  (721) 
1

>  <reference_id>  (721) 
40

>  <inspiration_ids>  (721) 
[40, 103]

>  <energy_score>  (721) 
-8.989875560774124

>  <distance_score>  (721) 
5.795280771467659

>  <path>  (721) 
/opt/xchem-fragalysis-2/maxwin/BulkDock/SCRATCH/511017/C8497-P40/C8497-P40.minimised.mol

>  <scratch_subdir>  (721) 
/opt/xchem-fragalysis-2/maxwin/BulkDock/SCRATCH/511017/C8497-P40

>  <fragmenstein_runtime>  (721) 
9.54215955734253

>  <fragmenstein_outcome>  (721) 
too moved

>  <fragmenstein_mode>  (721) 
expansion

>  <fragmenstein_error>  (721) 


$$$$
C8497-P103
     RDKit          3D

 44 47  0  0  0  0  0  0  0  0999 V2000
    3.5797   -3.0279   25.0541 C   0  0  0  0  0  0  0  0  0  0  0  0
    4.2071   -1.8727   25.5995 C   0  0  0  0  0  0  0  0  0  0  0  0
    4.3092   -1.6660   26.9345 N   0  0  0  0  0  0  0  0  0  0  0  0
    3.8340   -0.4024   27.1345 C   0  0  0  0  0  0  0  0  0  0  0  0
    3.3200    0.1603   28.3087 C   0  0  0  0  0  0  0  0  0  0  0  0
    2.7165    1.4052   28.2075 C   0  0  0  0  0  0  0  0  0  0  0  0
    2.6416    2.0435   26.9766 C   0  0  0  0  0  0  0  0  0  0  0  0
    3.1943    1.4658   25.8182 C   0  0  0  0  0  0  0  0  0  0  0  0
    3.8490    0.2103   25.8631 C   0  0  0  0  0  0  0  0  0  0  0  0
    4.4491   -0.7382   24.8960 C   0  0  0  0  0  0  0  0  0  0  0  0
    4.8931   -0.8404   23.3005 C   0  0  0  0  0  0  0  0  0  0  0  0
    5.2270   -1.8923   22.8194 O   0  0  0  0  0  0  0  0  0  0  0  0
    4.8732    0.7988   22.5288 C   0  0  0  0  0  0  0  0  0  0  0  0
    3.7871    1.3600   22.4877 O   0  0  0  0  0  0  0  0  0  0  0  0
    6.4337    1.7379   21.9847 N   0  0  0  0  0  0  0  0  0  0  0  0
    6.6903    3.4272   21.5191 C   0  0  0  0  0  0  0  0  0  0  0  0
    8.0235    3.9853   22.3661 C   0  0  0  0  0  0  0  0  0  0  0  0
    8.9822    4.9788   21.8975 N   0  0  0  0  0  0  0  0  0  0  0  0
    8.6962    6.1229   21.2121 C   0  0  0  0  0  0  0  0  0  0  0  0
    9.7140    6.4961   20.4677 N   0  0  0  0  0  0  0  0  0  0  0  0
   10.7508    5.6434   20.7799 C   0  0  0  0  0  0  0  0  0  0  0  0
   12.0435    5.5483   20.2360 C   0  0  0  0  0  0  0  0  0  0  0  0
   12.8959    4.5222   20.6728 C   0  0  0  0  0  0  0  0  0  0  0  0
   12.4862    3.6270   21.6608 C   0  0  0  0  0  0  0  0  0  0  0  0
   11.2100    3.7191   22.2318 C   0  0  0  0  0  0  0  0  0  0  0  0
   10.3505    4.7287   21.7520 C   0  0  0  0  0  0  0  0  0  0  0  0
    2.8072   -3.3297   25.7512 H   0  0  0  0  0  0  0  0  0  0  0  0
    4.2826   -3.8106   24.9372 H   0  0  0  0  0  0  0  0  0  0  0  0
    3.1648   -2.8289   24.0661 H   0  0  0  0  0  0  0  0  0  0  0  0
    4.2726   -2.3994   27.6255 H   0  0  0  0  0  0  0  0  0  0  0  0
    3.3384   -0.3784   29.2499 H   0  0  0  0  0  0  0  0  0  0  0  0
    2.2765    1.8669   29.0871 H   0  0  0  0  0  0  0  0  0  0  0  0
    2.1290    2.9992   26.8970 H   0  0  0  0  0  0  0  0  0  0  0  0
    3.0239    1.9588   24.8633 H   0  0  0  0  0  0  0  0  0  0  0  0
    7.1653    1.1449   21.9984 H   0  0  0  0  0  0  0  0  0  0  0  0
    6.7693    3.6890   20.4830 H   0  0  0  0  0  0  0  0  0  0  0  0
    5.8739    4.0378   21.9326 H   0  0  0  0  0  0  0  0  0  0  0  0
    7.6938    4.3331   23.3521 H   0  0  0  0  0  0  0  0  0  0  0  0
    8.6787    3.1204   22.4774 H   0  0  0  0  0  0  0  0  0  0  0  0
    7.7203    6.5925   21.2227 H   0  0  0  0  0  0  0  0  0  0  0  0
   12.3544    6.2371   19.4586 H   0  0  0  0  0  0  0  0  0  0  0  0
   13.8852    4.4281   20.2322 H   0  0  0  0  0  0  0  0  0  0  0  0
   13.1645    2.8411   21.9864 H   0  0  0  0  0  0  0  0  0  0  0  0
   10.8926    3.0002   22.9797 H   0  0  0  0  0  0  0  0  0  0  0  0
  1  2  1  0
  2  3  1  0
  3  4  1  0
  4  5  2  0
  5  6  1  0
  6  7  2  0
  7  8  1  0
  8  9  2  0
  9 10  1  0
 10 11  1  0
 11 12  2  0
 11 13  1  0
 13 14  2  0
 13 15  1  0
 15 16  1  0
 16 17  1  0
 17 18  1  0
 18 19  1  0
 19 20  2  0
 20 21  1  0
 21 22  2  0
 22 23  1  0
 23 24  2  0
 24 25  1  0
 25 26  2  0
 10  2  2  0
 26 18  1  0
  9  4  1  0
 26 21  1  0
  1 27  1  0
  1 28  1  0
  1 29  1  0
  3 30  1  0
  5 31  1  0
  6 32  1  0
  7 33  1  0
  8 34  1  0
 15 35  1  0
 16 36  1  0
 16 37  1  0
 17 38  1  0
 17 39  1  0
 19 40  1  0
 22 41  1  0
 23 42  1  0
 24 43  1  0
 25 44  1  0
M  END
>  <Energy>  (722) 
287.97198834775867

>  <compound_id>  (722) 
8497

>  <target_id>  (722) 
1

>  <reference_id>  (722) 
103

>  <inspiration_ids>  (722) 
[40, 103]

>  <energy_score>  (722) 
167.19773810758193

>  <distance_score>  (722) 
8.120319027470604

>  <path>  (722) 
/opt/xchem-fragalysis-2/maxwin/BulkDock/SCRATCH/511017/C8497-P103/C8497-P103.minimised.mol

>  <scratch_subdir>  (722) 
/opt/xchem-fragalysis-2/maxwin/BulkDock/SCRATCH/511017/C8497-P103

>  <fragmenstein_runtime>  (722) 
14.11693024635315

>  <fragmenstein_outcome>  (722) 
too moved

>  <fragmenstein_mode>  (722) 
expansion

>  <fragmenstein_error>  (722) 


$$$$
C8498-P40
     RDKit          3D

 45 49  0  0  0  0  0  0  0  0999 V2000
    8.2098   -6.5013   26.1085 O   0  0  0  0  0  0  0  0  0  0  0  0
    8.2703   -5.3192   26.2249 C   0  0  0  0  0  0  0  0  0  0  0  0
    9.4902   -4.2975   25.9127 N   0  0  0  0  0  0  0  0  0  0  0  0
   10.9809   -4.5870   25.4644 C   0  0  0  0  0  0  0  0  0  0  0  0
   11.8233   -4.0598   24.1889 C   0  0  0  0  0  0  0  0  0  0  0  0
   12.2917   -4.9118   23.1515 C   0  0  0  0  0  0  0  0  0  0  0  0
   12.9962   -4.4687   21.9540 C   0  0  0  0  0  0  0  0  0  0  0  0
   13.4371   -3.1601   21.8231 C   0  0  0  0  0  0  0  0  0  0  0  0
   14.0188   -2.5958   20.5682 N   0  0  0  0  0  0  0  0  0  0  0  0
   14.6893   -1.3772   20.4959 C   0  0  0  0  0  0  0  0  0  0  0  0
   14.9835   -0.9945   19.2681 N   0  0  0  0  0  0  0  0  0  0  0  0
   14.4158   -1.9327   18.4483 C   0  0  0  0  0  0  0  0  0  0  0  0
   14.2587   -1.8954   17.0401 C   0  0  0  0  0  0  0  0  0  0  0  0
   13.5487   -2.9043   16.3953 C   0  0  0  0  0  0  0  0  0  0  0  0
   13.0511   -3.9558   17.1454 C   0  0  0  0  0  0  0  0  0  0  0  0
   13.2216   -4.0126   18.5438 C   0  0  0  0  0  0  0  0  0  0  0  0
   13.8723   -2.9726   19.2086 C   0  0  0  0  0  0  0  0  0  0  0  0
   13.2645   -2.3831   22.9361 N   0  0  0  0  0  0  0  0  0  0  0  0
   12.4298   -2.8154   24.0237 C   0  0  0  0  0  0  0  0  0  0  0  0
    6.8780   -4.7459   26.9197 C   0  0  0  0  0  0  0  0  0  0  0  0
    6.7908   -3.6767   27.8390 C   0  0  0  0  0  0  0  0  0  0  0  0
    5.6070   -3.3213   28.5457 C   0  0  0  0  0  0  0  0  0  0  0  0
    4.4127   -4.0279   28.4055 C   0  0  0  0  0  0  0  0  0  0  0  0
    4.4042   -5.1170   27.5292 C   0  0  0  0  0  0  0  0  0  0  0  0
    3.3668   -6.0217   27.1537 C   0  0  0  0  0  0  0  0  0  0  0  0
    3.8961   -6.8601   26.2108 C   0  0  0  0  0  0  0  0  0  0  0  0
    5.2188   -6.5231   26.0445 N   0  0  0  0  0  0  0  0  0  0  0  0
    5.5899   -5.4478   26.8298 C   0  0  0  0  0  0  0  0  0  0  0  0
    9.1773   -3.3421   26.0456 H   0  0  0  0  0  0  0  0  0  0  0  0
   11.5711   -4.2844   26.3382 H   0  0  0  0  0  0  0  0  0  0  0  0
   11.0293   -5.6822   25.4276 H   0  0  0  0  0  0  0  0  0  0  0  0
   12.1054   -5.9853   23.2176 H   0  0  0  0  0  0  0  0  0  0  0  0
   13.2073   -5.2073   21.1879 H   0  0  0  0  0  0  0  0  0  0  0  0
   14.9248   -0.8302   21.4000 H   0  0  0  0  0  0  0  0  0  0  0  0
   14.6722   -1.0606   16.4837 H   0  0  0  0  0  0  0  0  0  0  0  0
   13.4104   -2.8819   15.3187 H   0  0  0  0  0  0  0  0  0  0  0  0
   12.5179   -4.7631   16.6442 H   0  0  0  0  0  0  0  0  0  0  0  0
   12.7865   -4.8269   19.1009 H   0  0  0  0  0  0  0  0  0  0  0  0
   12.3011   -2.0329   24.7707 H   0  0  0  0  0  0  0  0  0  0  0  0
    7.6923   -3.0972   28.0349 H   0  0  0  0  0  0  0  0  0  0  0  0
    5.6433   -2.4703   29.2248 H   0  0  0  0  0  0  0  0  0  0  0  0
    3.5257   -3.7281   28.9538 H   0  0  0  0  0  0  0  0  0  0  0  0
    2.3499   -6.0150   27.5178 H   0  0  0  0  0  0  0  0  0  0  0  0
    3.4702   -7.6725   25.6352 H   0  0  0  0  0  0  0  0  0  0  0  0
    5.8674   -6.9797   25.4177 H   0  0  0  0  0  0  0  0  0  0  0  0
  1  2  2  0
  2  3  1  0
  3  4  1  0
  4  5  1  0
  5  6  2  0
  6  7  1  0
  7  8  2  0
  8  9  1  0
  9 10  1  0
 10 11  2  0
 11 12  1  0
 12 13  2  0
 13 14  1  0
 14 15  2  0
 15 16  1  0
 16 17  2  0
  8 18  1  0
 18 19  2  0
  2 20  1  0
 20 21  2  0
 21 22  1  0
 22 23  2  0
 23 24  1  0
 24 25  1  0
 25 26  2  0
 26 27  1  0
 27 28  1  0
 19  5  1  0
 28 20  1  0
 17  9  1  0
 28 24  2  0
 17 12  1  0
  3 29  1  0
  4 30  1  0
  4 31  1  0
  6 32  1  0
  7 33  1  0
 10 34  1  0
 13 35  1  0
 14 36  1  0
 15 37  1  0
 16 38  1  0
 19 39  1  0
 21 40  1  0
 22 41  1  0
 23 42  1  0
 25 43  1  0
 26 44  1  0
 27 45  1  0
M  END
>  <Energy>  (723) 
149.04109237691051

>  <compound_id>  (723) 
8498

>  <target_id>  (723) 
1

>  <reference_id>  (723) 
40

>  <inspiration_ids>  (723) 
[40, 103]

>  <energy_score>  (723) 
45.85865274080811

>  <distance_score>  (723) 
6.074978452372451

>  <path>  (723) 
/opt/xchem-fragalysis-2/maxwin/BulkDock/SCRATCH/511017/C8498-P40/C8498-P40.minimised.mol

>  <scratch_subdir>  (723) 
/opt/xchem-fragalysis-2/maxwin/BulkDock/SCRATCH/511017/C8498-P40

>  <fragmenstein_runtime>  (723) 
9.333895206451416

>  <fragmenstein_outcome>  (723) 
too moved

>  <fragmenstein_mode>  (723) 
expansion

>  <fragmenstein_error>  (723) 


$$$$
C8498-P103
     RDKit          3D

 45 49  0  0  0  0  0  0  0  0999 V2000
    1.1966    2.3196   26.4079 O   0  0  0  0  0  0  0  0  0  0  0  0
    2.3902    2.2060   26.4597 C   0  0  0  0  0  0  0  0  0  0  0  0
    3.4414    3.0699   25.9668 N   0  0  0  0  0  0  0  0  0  0  0  0
    3.3828    4.3934   25.3393 C   0  0  0  0  0  0  0  0  0  0  0  0
    3.8963    4.4642   23.9120 C   0  0  0  0  0  0  0  0  0  0  0  0
    3.2063    3.8637   22.8596 C   0  0  0  0  0  0  0  0  0  0  0  0
    3.7531    3.8403   21.5597 C   0  0  0  0  0  0  0  0  0  0  0  0
    5.0055    4.4185   21.3006 C   0  0  0  0  0  0  0  0  0  0  0  0
    5.5986    4.3038   19.9826 N   0  0  0  0  0  0  0  0  0  0  0  0
    5.0354    3.6407   18.9082 C   0  0  0  0  0  0  0  0  0  0  0  0
    5.8118    3.5745   17.8517 N   0  0  0  0  0  0  0  0  0  0  0  0
    6.8964    4.3297   18.1761 C   0  0  0  0  0  0  0  0  0  0  0  0
    7.9998    4.6355   17.3653 C   0  0  0  0  0  0  0  0  0  0  0  0
    9.0034    5.4461   17.8909 C   0  0  0  0  0  0  0  0  0  0  0  0
    8.9144    5.9194   19.2019 C   0  0  0  0  0  0  0  0  0  0  0  0
    7.8213    5.6112   20.0297 C   0  0  0  0  0  0  0  0  0  0  0  0
    6.8076    4.8049   19.4919 C   0  0  0  0  0  0  0  0  0  0  0  0
    5.6685    5.0569   22.3001 N   0  0  0  0  0  0  0  0  0  0  0  0
    5.0973    5.0840   23.5547 C   0  0  0  0  0  0  0  0  0  0  0  0
    2.8602    0.8812   27.1119 C   0  0  0  0  0  0  0  0  0  0  0  0
    4.1785    0.3878   27.0935 C   0  0  0  0  0  0  0  0  0  0  0  0
    4.5217   -0.8687   27.6133 C   0  0  0  0  0  0  0  0  0  0  0  0
    3.5636   -1.7062   28.1797 C   0  0  0  0  0  0  0  0  0  0  0  0
    2.2323   -1.2734   28.2209 C   0  0  0  0  0  0  0  0  0  0  0  0
    1.0300   -1.8846   28.6736 C   0  0  0  0  0  0  0  0  0  0  0  0
    0.0062   -1.0016   28.4345 C   0  0  0  0  0  0  0  0  0  0  0  0
    0.5461    0.1192   27.8630 N   0  0  0  0  0  0  0  0  0  0  0  0
    1.9142   -0.0086   27.7084 C   0  0  0  0  0  0  0  0  0  0  0  0
    4.3313    2.7035   26.2596 H   0  0  0  0  0  0  0  0  0  0  0  0
    2.3415    4.7341   25.3624 H   0  0  0  0  0  0  0  0  0  0  0  0
    3.9614    5.0683   25.9793 H   0  0  0  0  0  0  0  0  0  0  0  0
    2.2614    3.3571   23.0513 H   0  0  0  0  0  0  0  0  0  0  0  0
    3.1734    3.3219   20.8058 H   0  0  0  0  0  0  0  0  0  0  0  0
    4.0465    3.2088   18.9364 H   0  0  0  0  0  0  0  0  0  0  0  0
    8.0626    4.2567   16.3510 H   0  0  0  0  0  0  0  0  0  0  0  0
    9.8742    5.6901   17.2869 H   0  0  0  0  0  0  0  0  0  0  0  0
    9.7198    6.5378   19.5958 H   0  0  0  0  0  0  0  0  0  0  0  0
    7.7689    5.9935   21.0449 H   0  0  0  0  0  0  0  0  0  0  0  0
    5.6997    5.6024   24.2986 H   0  0  0  0  0  0  0  0  0  0  0  0
    4.9876    0.9352   26.6268 H   0  0  0  0  0  0  0  0  0  0  0  0
    5.5493   -1.2206   27.5336 H   0  0  0  0  0  0  0  0  0  0  0  0
    3.8439   -2.6866   28.5483 H   0  0  0  0  0  0  0  0  0  0  0  0
    0.9271   -2.8704   29.1054 H   0  0  0  0  0  0  0  0  0  0  0  0
   -1.0593   -1.0788   28.6014 H   0  0  0  0  0  0  0  0  0  0  0  0
    0.0356    0.9303   27.5338 H   0  0  0  0  0  0  0  0  0  0  0  0
  1  2  2  0
  2  3  1  0
  3  4  1  0
  4  5  1  0
  5  6  2  0
  6  7  1  0
  7  8  2  0
  8  9  1  0
  9 10  1  0
 10 11  2  0
 11 12  1  0
 12 13  2  0
 13 14  1  0
 14 15  2  0
 15 16  1  0
 16 17  2  0
  8 18  1  0
 18 19  2  0
  2 20  1  0
 20 21  2  0
 21 22  1  0
 22 23  2  0
 23 24  1  0
 24 25  1  0
 25 26  2  0
 26 27  1  0
 27 28  1  0
 19  5  1  0
 28 20  1  0
 17  9  1  0
 28 24  2  0
 17 12  1  0
  3 29  1  0
  4 30  1  0
  4 31  1  0
  6 32  1  0
  7 33  1  0
 10 34  1  0
 13 35  1  0
 14 36  1  0
 15 37  1  0
 16 38  1  0
 19 39  1  0
 21 40  1  0
 22 41  1  0
 23 42  1  0
 25 43  1  0
 26 44  1  0
 27 45  1  0
M  END
>  <Energy>  (724) 
74.780548127953622

>  <compound_id>  (724) 
8498

>  <target_id>  (724) 
1

>  <reference_id>  (724) 
103

>  <inspiration_ids>  (724) 
[40, 103]

>  <energy_score>  (724) 
-32.588203904777686

>  <distance_score>  (724) 
8.622667906901816

>  <path>  (724) 
/opt/xchem-fragalysis-2/maxwin/BulkDock/SCRATCH/511017/C8498-P103/C8498-P103.minimised.mol

>  <scratch_subdir>  (724) 
/opt/xchem-fragalysis-2/maxwin/BulkDock/SCRATCH/511017/C8498-P103

>  <fragmenstein_runtime>  (724) 
16.09862518310547

>  <fragmenstein_outcome>  (724) 
too moved

>  <fragmenstein_mode>  (724) 
expansion

>  <fragmenstein_error>  (724) 


$$$$
C8499-P40
     RDKit          3D

 46 50  0  0  0  0  0  0  0  0999 V2000
    8.4205   -7.1499   26.0581 O   0  0  0  0  0  0  0  0  0  0  0  0
    8.5594   -5.9807   26.2879 C   0  0  0  0  0  0  0  0  0  0  0  0
    9.7371   -5.1433   26.2347 N   0  0  0  0  0  0  0  0  0  0  0  0
   11.1355   -5.4746   25.9815 C   0  0  0  0  0  0  0  0  0  0  0  0
   11.8839   -4.7189   24.8973 C   0  0  0  0  0  0  0  0  0  0  0  0
   12.5010   -5.4080   23.8326 C   0  0  0  0  0  0  0  0  0  0  0  0
   13.1870   -4.7371   22.7946 C   0  0  0  0  0  0  0  0  0  0  0  0
   13.3380   -3.3502   22.8231 C   0  0  0  0  0  0  0  0  0  0  0  0
   13.9779   -2.6284   21.7520 N   0  0  0  0  0  0  0  0  0  0  0  0
   14.5459   -1.3696   21.8642 C   0  0  0  0  0  0  0  0  0  0  0  0
   15.0658   -0.9213   20.7440 N   0  0  0  0  0  0  0  0  0  0  0  0
   14.8032   -1.8946   19.8238 C   0  0  0  0  0  0  0  0  0  0  0  0
   15.0760   -1.8762   18.4431 C   0  0  0  0  0  0  0  0  0  0  0  0
   14.5703   -2.8923   17.6360 C   0  0  0  0  0  0  0  0  0  0  0  0
   13.8321   -3.9212   18.2052 C   0  0  0  0  0  0  0  0  0  0  0  0
   13.6110   -3.9970   19.5887 C   0  0  0  0  0  0  0  0  0  0  0  0
   14.1107   -2.9661   20.3994 C   0  0  0  0  0  0  0  0  0  0  0  0
   12.8320   -2.6744   23.9508 C   0  0  0  0  0  0  0  0  0  0  0  0
   12.0875   -3.3400   24.9512 C   0  0  0  0  0  0  0  0  0  0  0  0
    7.2930   -5.3057   26.8209 C   0  0  0  0  0  0  0  0  0  0  0  0
    7.3213   -4.2244   27.7267 C   0  0  0  0  0  0  0  0  0  0  0  0
    6.1556   -3.6894   28.2902 C   0  0  0  0  0  0  0  0  0  0  0  0
    4.9028   -4.2298   27.9981 C   0  0  0  0  0  0  0  0  0  0  0  0
    4.8226   -5.3324   27.1307 C   0  0  0  0  0  0  0  0  0  0  0  0
    3.7314   -6.1146   26.6586 C   0  0  0  0  0  0  0  0  0  0  0  0
    4.2430   -7.0715   25.8187 C   0  0  0  0  0  0  0  0  0  0  0  0
    5.6054   -6.9022   25.7653 N   0  0  0  0  0  0  0  0  0  0  0  0
    5.9992   -5.8430   26.5638 C   0  0  0  0  0  0  0  0  0  0  0  0
    9.4682   -4.1840   26.4119 H   0  0  0  0  0  0  0  0  0  0  0  0
   11.1709   -6.5506   25.7748 H   0  0  0  0  0  0  0  0  0  0  0  0
   11.6649   -5.3220   26.9293 H   0  0  0  0  0  0  0  0  0  0  0  0
   12.4298   -6.4941   23.7795 H   0  0  0  0  0  0  0  0  0  0  0  0
   13.6277   -5.3385   22.0048 H   0  0  0  0  0  0  0  0  0  0  0  0
   14.5753   -0.8339   22.8026 H   0  0  0  0  0  0  0  0  0  0  0  0
   15.6240   -1.0439   18.0147 H   0  0  0  0  0  0  0  0  0  0  0  0
   14.7365   -2.8720   16.5627 H   0  0  0  0  0  0  0  0  0  0  0  0
   13.4043   -4.6856   17.5609 H   0  0  0  0  0  0  0  0  0  0  0  0
   12.9911   -4.7956   19.9792 H   0  0  0  0  0  0  0  0  0  0  0  0
   12.9232   -1.5946   24.0508 H   0  0  0  0  0  0  0  0  0  0  0  0
   11.6737   -2.7546   25.7695 H   0  0  0  0  0  0  0  0  0  0  0  0
    8.2689   -3.7926   28.0371 H   0  0  0  0  0  0  0  0  0  0  0  0
    6.2287   -2.8460   28.9734 H   0  0  0  0  0  0  0  0  0  0  0  0
    4.0077   -3.8045   28.4417 H   0  0  0  0  0  0  0  0  0  0  0  0
    2.6900   -5.9742   26.9052 H   0  0  0  0  0  0  0  0  0  0  0  0
    3.7779   -7.8562   25.2345 H   0  0  0  0  0  0  0  0  0  0  0  0
    6.2450   -7.4735   25.2219 H   0  0  0  0  0  0  0  0  0  0  0  0
  1  2  2  0
  2  3  1  0
  3  4  1  0
  4  5  1  0
  5  6  2  0
  6  7  1  0
  7  8  2  0
  8  9  1  0
  9 10  1  0
 10 11  2  0
 11 12  1  0
 12 13  2  0
 13 14  1  0
 14 15  2  0
 15 16  1  0
 16 17  2  0
  8 18  1  0
 18 19  2  0
  2 20  1  0
 20 21  2  0
 21 22  1  0
 22 23  2  0
 23 24  1  0
 24 25  1  0
 25 26  2  0
 26 27  1  0
 27 28  1  0
 19  5  1  0
 28 20  1  0
 17  9  1  0
 28 24  2  0
 17 12  1  0
  3 29  1  0
  4 30  1  0
  4 31  1  0
  6 32  1  0
  7 33  1  0
 10 34  1  0
 13 35  1  0
 14 36  1  0
 15 37  1  0
 16 38  1  0
 18 39  1  0
 19 40  1  0
 21 41  1  0
 22 42  1  0
 23 43  1  0
 25 44  1  0
 26 45  1  0
 27 46  1  0
M  END
>  <Energy>  (725) 
78.586136469422726

>  <compound_id>  (725) 
8499

>  <target_id>  (725) 
1

>  <reference_id>  (725) 
40

>  <inspiration_ids>  (725) 
[40, 103]

>  <energy_score>  (725) 
-11.635912285109953

>  <distance_score>  (725) 
6.618008964583822

>  <path>  (725) 
/opt/xchem-fragalysis-2/maxwin/BulkDock/SCRATCH/511017/C8499-P40/C8499-P40.minimised.mol

>  <scratch_subdir>  (725) 
/opt/xchem-fragalysis-2/maxwin/BulkDock/SCRATCH/511017/C8499-P40

>  <fragmenstein_runtime>  (725) 
21.529959440231323

>  <fragmenstein_outcome>  (725) 
too moved

>  <fragmenstein_mode>  (725) 
expansion

>  <fragmenstein_error>  (725) 


$$$$
C8499-P103
     RDKit          3D

 46 50  0  0  0  0  0  0  0  0999 V2000
    4.8223   -0.8251   27.5624 O   0  0  0  0  0  0  0  0  0  0  0  0
    4.1066   -1.6813   27.1292 C   0  0  0  0  0  0  0  0  0  0  0  0
    3.8848   -2.1252   25.7875 N   0  0  0  0  0  0  0  0  0  0  0  0
    4.3758   -1.6211   24.5302 C   0  0  0  0  0  0  0  0  0  0  0  0
    5.7625   -1.8238   23.8830 C   0  0  0  0  0  0  0  0  0  0  0  0
    5.9169   -1.5304   21.9558 C   0  0  0  0  0  0  0  0  0  0  0  0
    7.7455   -0.8552   21.3089 C   0  0  0  0  0  0  0  0  0  0  0  0
    9.1703   -0.3905   22.8382 C   0  0  0  0  0  0  0  0  0  0  0  0
   10.2092    0.7105   23.0114 N   0  0  0  0  0  0  0  0  0  0  0  0
   10.1174    2.0521   22.6838 C   0  0  0  0  0  0  0  0  0  0  0  0
   11.2874    2.6000   22.4623 N   0  0  0  0  0  0  0  0  0  0  0  0
   12.1773    1.6661   22.9017 C   0  0  0  0  0  0  0  0  0  0  0  0
   13.5761    1.6915   22.8322 C   0  0  0  0  0  0  0  0  0  0  0  0
   14.2948    0.6397   23.4020 C   0  0  0  0  0  0  0  0  0  0  0  0
   13.6343   -0.3844   24.0784 C   0  0  0  0  0  0  0  0  0  0  0  0
   12.2348   -0.4255   24.1609 C   0  0  0  0  0  0  0  0  0  0  0  0
   11.5178    0.5814   23.4912 C   0  0  0  0  0  0  0  0  0  0  0  0
    8.8053   -1.2843   24.6263 C   0  0  0  0  0  0  0  0  0  0  0  0
    7.1177   -1.8147   25.2599 C   0  0  0  0  0  0  0  0  0  0  0  0
    3.1986   -2.3665   28.1030 C   0  0  0  0  0  0  0  0  0  0  0  0
    1.8047   -2.3254   27.9434 C   0  0  0  0  0  0  0  0  0  0  0  0
    0.9452   -3.0189   28.7952 C   0  0  0  0  0  0  0  0  0  0  0  0
    1.4577   -3.7748   29.8511 C   0  0  0  0  0  0  0  0  0  0  0  0
    2.8485   -3.7950   30.0665 C   0  0  0  0  0  0  0  0  0  0  0  0
    3.6863   -4.4431   31.0126 C   0  0  0  0  0  0  0  0  0  0  0  0
    4.9876   -4.0971   30.7253 C   0  0  0  0  0  0  0  0  0  0  0  0
    4.9723   -3.2366   29.6585 N   0  0  0  0  0  0  0  0  0  0  0  0
    3.6819   -3.0669   29.2128 C   0  0  0  0  0  0  0  0  0  0  0  0
    3.1455   -2.8167   25.7865 H   0  0  0  0  0  0  0  0  0  0  0  0
    3.6834   -2.0807   23.8313 H   0  0  0  0  0  0  0  0  0  0  0  0
    4.2935   -0.5438   24.6683 H   0  0  0  0  0  0  0  0  0  0  0  0
    5.0530   -0.8742   21.7866 H   0  0  0  0  0  0  0  0  0  0  0  0
    7.6215   -0.1710   20.4561 H   0  0  0  0  0  0  0  0  0  0  0  0
    9.1885    2.5477   22.4651 H   0  0  0  0  0  0  0  0  0  0  0  0
   14.0813    2.5179   22.3452 H   0  0  0  0  0  0  0  0  0  0  0  0
   15.3799    0.6357   23.3422 H   0  0  0  0  0  0  0  0  0  0  0  0
   14.2125   -1.1933   24.5199 H   0  0  0  0  0  0  0  0  0  0  0  0
   11.7498   -1.2930   24.5930 H   0  0  0  0  0  0  0  0  0  0  0  0
    9.5537   -1.1094   25.4268 H   0  0  0  0  0  0  0  0  0  0  0  0
    6.8977   -1.8952   26.3171 H   0  0  0  0  0  0  0  0  0  0  0  0
    1.3855   -1.7310   27.1372 H   0  0  0  0  0  0  0  0  0  0  0  0
   -0.1291   -2.9711   28.6315 H   0  0  0  0  0  0  0  0  0  0  0  0
    0.7921   -4.3283   30.5075 H   0  0  0  0  0  0  0  0  0  0  0  0
    3.3619   -5.0832   31.8238 H   0  0  0  0  0  0  0  0  0  0  0  0
    5.9204   -4.3573   31.2066 H   0  0  0  0  0  0  0  0  0  0  0  0
    5.7771   -2.7949   29.2276 H   0  0  0  0  0  0  0  0  0  0  0  0
  1  2  2  0
  2  3  1  0
  3  4  1  0
  4  5  1  0
  5  6  2  0
  6  7  1  0
  7  8  2  0
  8  9  1  0
  9 10  1  0
 10 11  2  0
 11 12  1  0
 12 13  2  0
 13 14  1  0
 14 15  2  0
 15 16  1  0
 16 17  2  0
  8 18  1  0
 18 19  2  0
  2 20  1  0
 20 21  2  0
 21 22  1  0
 22 23  2  0
 23 24  1  0
 24 25  1  0
 25 26  2  0
 26 27  1  0
 27 28  1  0
 19  5  1  0
 28 20  1  0
 17  9  1  0
 28 24  2  0
 17 12  1  0
  3 29  1  0
  4 30  1  0
  4 31  1  0
  6 32  1  0
  7 33  1  0
 10 34  1  0
 13 35  1  0
 14 36  1  0
 15 37  1  0
 16 38  1  0
 18 39  1  0
 19 40  1  0
 21 41  1  0
 22 42  1  0
 23 43  1  0
 25 44  1  0
 26 45  1  0
 27 46  1  0
M  END
>  <Energy>  (726) 
805.50254079282445

>  <compound_id>  (726) 
8499

>  <target_id>  (726) 
1

>  <reference_id>  (726) 
103

>  <inspiration_ids>  (726) 
[40, 103]

>  <energy_score>  (726) 
715.2804920382994

>  <distance_score>  (726) 
6.9062983583602495

>  <path>  (726) 
/opt/xchem-fragalysis-2/maxwin/BulkDock/SCRATCH/511017/C8499-P103/C8499-P103.minimised.mol

>  <scratch_subdir>  (726) 
/opt/xchem-fragalysis-2/maxwin/BulkDock/SCRATCH/511017/C8499-P103

>  <fragmenstein_runtime>  (726) 
11.84894347190857

>  <fragmenstein_outcome>  (726) 
too moved

>  <fragmenstein_mode>  (726) 
expansion

>  <fragmenstein_error>  (726) 


$$$$
C8500-P40
     RDKit          3D

 43 46  0  0  0  0  0  0  0  0999 V2000
    2.8859  -10.5960   24.0435 O   0  0  0  0  0  0  0  0  0  0  0  0
    3.6619   -9.4565   24.2586 N   0  0  0  0  0  0  0  0  0  0  0  0
    3.1658   -8.6761   25.1606 C   0  0  0  0  0  0  0  0  0  0  0  0
    3.8567   -7.4331   25.4235 C   0  0  0  0  0  0  0  0  0  0  0  0
    4.8116   -7.0072   24.5487 C   0  0  0  0  0  0  0  0  0  0  0  0
    5.4387   -5.8870   24.9659 N   0  0  0  0  0  0  0  0  0  0  0  0
    6.7639   -5.5904   24.4020 C   0  0  0  0  0  0  0  0  0  0  0  0
    6.9761   -4.8820   22.7294 C   0  0  0  0  0  0  0  0  0  0  0  0
    6.2887   -3.6093   22.9824 O   0  0  0  0  0  0  0  0  0  0  0  0
    8.0011   -4.3740   21.0200 C   0  0  0  0  0  0  0  0  0  0  0  0
    9.9532   -4.9455   20.8588 N   0  0  0  0  0  0  0  0  0  0  0  0
   11.1830   -3.9850   21.5533 C   0  0  0  0  0  0  0  0  0  0  0  0
   12.3874   -4.2891   21.2031 N   0  0  0  0  0  0  0  0  0  0  0  0
   12.3198   -5.5925   21.3927 C   0  0  0  0  0  0  0  0  0  0  0  0
   13.4191   -6.3359   21.8650 C   0  0  0  0  0  0  0  0  0  0  0  0
   13.2489   -7.6370   22.3095 C   0  0  0  0  0  0  0  0  0  0  0  0
   12.0147   -8.2394   22.1785 C   0  0  0  0  0  0  0  0  0  0  0  0
   10.9299   -7.5514   21.6101 C   0  0  0  0  0  0  0  0  0  0  0  0
   11.0061   -6.1443   21.2683 C   0  0  0  0  0  0  0  0  0  0  0  0
    4.7867   -5.4503   26.1088 C   0  0  0  0  0  0  0  0  0  0  0  0
    4.9751   -4.3133   26.9104 C   0  0  0  0  0  0  0  0  0  0  0  0
    4.1442   -4.1336   28.0255 C   0  0  0  0  0  0  0  0  0  0  0  0
    3.1673   -5.0657   28.3574 C   0  0  0  0  0  0  0  0  0  0  0  0
    2.9917   -6.2083   27.5724 C   0  0  0  0  0  0  0  0  0  0  0  0
    3.7893   -6.4127   26.4212 C   0  0  0  0  0  0  0  0  0  0  0  0
    3.2806  -11.2584   24.6519 H   0  0  0  0  0  0  0  0  0  0  0  0
    2.2785   -8.9442   25.7348 H   0  0  0  0  0  0  0  0  0  0  0  0
    5.0880   -7.4317   23.6085 H   0  0  0  0  0  0  0  0  0  0  0  0
    7.2181   -6.5999   24.3881 H   0  0  0  0  0  0  0  0  0  0  0  0
    7.2715   -5.0270   25.1918 H   0  0  0  0  0  0  0  0  0  0  0  0
    6.5795   -5.8548   22.3898 H   0  0  0  0  0  0  0  0  0  0  0  0
    6.3503   -3.4200   23.9436 H   0  0  0  0  0  0  0  0  0  0  0  0
    7.9424   -3.3159   21.1290 H   0  0  0  0  0  0  0  0  0  0  0  0
    7.4628   -4.5469   20.0698 H   0  0  0  0  0  0  0  0  0  0  0  0
   10.9192   -3.1422   22.1564 H   0  0  0  0  0  0  0  0  0  0  0  0
   14.3839   -5.8444   21.9524 H   0  0  0  0  0  0  0  0  0  0  0  0
   14.0951   -8.1864   22.7123 H   0  0  0  0  0  0  0  0  0  0  0  0
   11.9052   -9.2894   22.4455 H   0  0  0  0  0  0  0  0  0  0  0  0
   10.0901   -8.1812   21.3385 H   0  0  0  0  0  0  0  0  0  0  0  0
    5.7389   -3.5789   26.6689 H   0  0  0  0  0  0  0  0  0  0  0  0
    4.2764   -3.2471   28.6433 H   0  0  0  0  0  0  0  0  0  0  0  0
    2.5440   -4.9000   29.2322 H   0  0  0  0  0  0  0  0  0  0  0  0
    2.2353   -6.9286   27.8530 H   0  0  0  0  0  0  0  0  0  0  0  0
  1  2  1  0
  2  3  2  3
  3  4  1  0
  4  5  2  0
  5  6  1  0
  6  7  1  0
  7  8  1  0
  8  9  1  0
  8 10  1  0
 10 11  1  0
 11 12  1  0
 12 13  2  0
 13 14  1  0
 14 15  2  0
 15 16  1  0
 16 17  2  0
 17 18  1  0
 18 19  2  0
  6 20  1  0
 20 21  2  0
 21 22  1  0
 22 23  2  0
 23 24  1  0
 24 25  2  0
 25  4  1  0
 19 11  1  0
 25 20  1  0
 19 14  1  0
  1 26  1  0
  3 27  1  0
  5 28  1  0
  7 29  1  0
  7 30  1  0
  8 31  1  0
  9 32  1  0
 10 33  1  0
 10 34  1  0
 12 35  1  0
 15 36  1  0
 16 37  1  0
 17 38  1  0
 18 39  1  0
 21 40  1  0
 22 41  1  0
 23 42  1  0
 24 43  1  0
M  END
>  <Energy>  (727) 
467.31832101610212

>  <compound_id>  (727) 
8500

>  <target_id>  (727) 
1

>  <reference_id>  (727) 
40

>  <inspiration_ids>  (727) 
[40, 103]

>  <energy_score>  (727) 
354.30517542409876

>  <distance_score>  (727) 
6.530700118517954

>  <path>  (727) 
/opt/xchem-fragalysis-2/maxwin/BulkDock/SCRATCH/511017/C8500-P40/C8500-P40.minimised.mol

>  <scratch_subdir>  (727) 
/opt/xchem-fragalysis-2/maxwin/BulkDock/SCRATCH/511017/C8500-P40

>  <fragmenstein_runtime>  (727) 
10.765742301940918

>  <fragmenstein_outcome>  (727) 
too moved

>  <fragmenstein_mode>  (727) 
expansion

>  <fragmenstein_error>  (727) 


$$$$
C8500-P103
     RDKit          3D

 43 46  0  0  0  0  0  0  0  0999 V2000
    4.0993   -9.3079   16.3736 O   0  0  0  0  0  0  0  0  0  0  0  0
    3.6311   -8.0186   16.6607 N   0  0  0  0  0  0  0  0  0  0  0  0
    2.4783   -8.1055   17.2471 C   0  0  0  0  0  0  0  0  0  0  0  0
    1.7721   -6.9030   17.6414 C   0  0  0  0  0  0  0  0  0  0  0  0
    2.1577   -5.6192   17.3138 C   0  0  0  0  0  0  0  0  0  0  0  0
    1.1021   -4.7647   17.5062 N   0  0  0  0  0  0  0  0  0  0  0  0
    0.8605   -3.5529   16.7192 C   0  0  0  0  0  0  0  0  0  0  0  0
    1.9083   -2.4216   16.4422 C   0  0  0  0  0  0  0  0  0  0  0  0
    1.8833   -1.4044   17.4622 O   0  0  0  0  0  0  0  0  0  0  0  0
    3.3872   -2.7573   16.1467 C   0  0  0  0  0  0  0  0  0  0  0  0
    3.6448   -3.1977   14.7911 N   0  0  0  0  0  0  0  0  0  0  0  0
    2.8493   -4.0348   14.0664 C   0  0  0  0  0  0  0  0  0  0  0  0
    2.9984   -3.8505   12.7784 N   0  0  0  0  0  0  0  0  0  0  0  0
    4.0613   -3.0048   12.6666 C   0  0  0  0  0  0  0  0  0  0  0  0
    4.6439   -2.4906   11.5042 C   0  0  0  0  0  0  0  0  0  0  0  0
    5.8202   -1.7699   11.6340 C   0  0  0  0  0  0  0  0  0  0  0  0
    6.3921   -1.6008   12.8971 C   0  0  0  0  0  0  0  0  0  0  0  0
    5.7839   -2.0320   14.0762 C   0  0  0  0  0  0  0  0  0  0  0  0
    4.5835   -2.7028   13.9233 C   0  0  0  0  0  0  0  0  0  0  0  0
    0.0702   -5.4895   18.1200 C   0  0  0  0  0  0  0  0  0  0  0  0
   -1.2571   -5.1362   18.4128 C   0  0  0  0  0  0  0  0  0  0  0  0
   -2.1391   -6.1392   18.8251 C   0  0  0  0  0  0  0  0  0  0  0  0
   -1.6977   -7.4365   19.0683 C   0  0  0  0  0  0  0  0  0  0  0  0
   -0.3685   -7.7778   18.8278 C   0  0  0  0  0  0  0  0  0  0  0  0
    0.5071   -6.8116   18.2822 C   0  0  0  0  0  0  0  0  0  0  0  0
    4.8306   -9.1333   15.7498 H   0  0  0  0  0  0  0  0  0  0  0  0
    1.9939   -9.0767   17.4438 H   0  0  0  0  0  0  0  0  0  0  0  0
    3.0529   -5.3340   16.7890 H   0  0  0  0  0  0  0  0  0  0  0  0
    0.5109   -3.9346   15.7514 H   0  0  0  0  0  0  0  0  0  0  0  0
   -0.0098   -3.0671   17.1717 H   0  0  0  0  0  0  0  0  0  0  0  0
    1.5212   -1.8893   15.5619 H   0  0  0  0  0  0  0  0  0  0  0  0
    0.9551   -1.2473   17.7072 H   0  0  0  0  0  0  0  0  0  0  0  0
    3.9648   -1.8379   16.2934 H   0  0  0  0  0  0  0  0  0  0  0  0
    3.7801   -3.4942   16.8376 H   0  0  0  0  0  0  0  0  0  0  0  0
    2.1344   -4.7191   14.4993 H   0  0  0  0  0  0  0  0  0  0  0  0
    4.2153   -2.7056   10.5331 H   0  0  0  0  0  0  0  0  0  0  0  0
    6.3310   -1.3996   10.7508 H   0  0  0  0  0  0  0  0  0  0  0  0
    7.3464   -1.0924   12.9790 H   0  0  0  0  0  0  0  0  0  0  0  0
    6.2401   -1.8161   15.0284 H   0  0  0  0  0  0  0  0  0  0  0  0
   -1.6272   -4.1283   18.2595 H   0  0  0  0  0  0  0  0  0  0  0  0
   -3.1845   -5.8873   18.9903 H   0  0  0  0  0  0  0  0  0  0  0  0
   -2.3951   -8.1894   19.4251 H   0  0  0  0  0  0  0  0  0  0  0  0
   -0.0453   -8.8053   18.9639 H   0  0  0  0  0  0  0  0  0  0  0  0
  1  2  1  0
  2  3  2  3
  3  4  1  0
  4  5  2  0
  5  6  1  0
  6  7  1  0
  7  8  1  0
  8  9  1  0
  8 10  1  0
 10 11  1  0
 11 12  1  0
 12 13  2  0
 13 14  1  0
 14 15  2  0
 15 16  1  0
 16 17  2  0
 17 18  1  0
 18 19  2  0
  6 20  1  0
 20 21  2  0
 21 22  1  0
 22 23  2  0
 23 24  1  0
 24 25  2  0
 25  4  1  0
 19 11  1  0
 25 20  1  0
 19 14  1  0
  1 26  1  0
  3 27  1  0
  5 28  1  0
  7 29  1  0
  7 30  1  0
  8 31  1  0
  9 32  1  0
 10 33  1  0
 10 34  1  0
 12 35  1  0
 15 36  1  0
 16 37  1  0
 17 38  1  0
 18 39  1  0
 21 40  1  0
 22 41  1  0
 23 42  1  0
 24 43  1  0
M  END
>  <Energy>  (728) 
106.36622150243865

>  <compound_id>  (728) 
8500

>  <target_id>  (728) 
1

>  <reference_id>  (728) 
103

>  <inspiration_ids>  (728) 
[40, 103]

>  <energy_score>  (728) 
-6.646924089563868

>  <distance_score>  (728) 
10.731436925888536

>  <path>  (728) 
/opt/xchem-fragalysis-2/maxwin/BulkDock/SCRATCH/511017/C8500-P103/C8500-P103.minimised.mol

>  <scratch_subdir>  (728) 
/opt/xchem-fragalysis-2/maxwin/BulkDock/SCRATCH/511017/C8500-P103

>  <fragmenstein_runtime>  (728) 
9.321325540542603

>  <fragmenstein_outcome>  (728) 
too moved

>  <fragmenstein_mode>  (728) 
expansion

>  <fragmenstein_error>  (728) 


$$$$
C8501-P40
     RDKit          3D

 33 36  0  0  0  0  0  0  0  0999 V2000
    7.3402   -6.6740   23.5215 O   0  0  0  0  0  0  0  0  0  0  0  0
    6.8447   -5.6572   23.0964 C   0  0  0  0  0  0  0  0  0  0  0  0
    7.7502   -4.6558   21.6590 N   0  0  0  0  0  0  0  0  0  0  0  0
    9.6343   -4.9211   20.7776 N   0  0  0  0  0  0  0  0  0  0  0  0
   10.9838   -4.0593   21.6747 C   0  0  0  0  0  0  0  0  0  0  0  0
   11.6977   -4.6562   22.5920 N   0  0  0  0  0  0  0  0  0  0  0  0
   11.8393   -5.8656   22.0275 C   0  0  0  0  0  0  0  0  0  0  0  0
   13.0710   -6.5283   22.2057 C   0  0  0  0  0  0  0  0  0  0  0  0
   14.0840   -6.0915   21.3435 C   0  0  0  0  0  0  0  0  0  0  0  0
   13.7594   -5.3667   20.2124 C   0  0  0  0  0  0  0  0  0  0  0  0
   12.3987   -5.1814   19.9025 C   0  0  0  0  0  0  0  0  0  0  0  0
   11.2146   -5.6545   20.7825 C   0  0  0  0  0  0  0  0  0  0  0  0
    5.5870   -5.3193   24.0000 C   0  0  0  0  0  0  0  0  0  0  0  0
    4.9960   -6.5990   24.4314 C   0  0  0  0  0  0  0  0  0  0  0  0
    4.2266   -6.9189   25.5589 C   0  0  0  0  0  0  0  0  0  0  0  0
    4.0066   -5.9624   26.5084 C   0  0  0  0  0  0  0  0  0  0  0  0
    4.5614   -4.7135   26.2539 C   0  0  0  0  0  0  0  0  0  0  0  0
    4.4695   -3.6201   27.0910 N   0  0  0  0  0  0  0  0  0  0  0  0
    4.9476   -2.5202   26.4693 C   0  0  0  0  0  0  0  0  0  0  0  0
    5.4411   -2.9474   25.2642 C   0  0  0  0  0  0  0  0  0  0  0  0
    5.3333   -4.3696   25.1050 C   0  0  0  0  0  0  0  0  0  0  0  0
    7.2620   -3.8045   21.4915 H   0  0  0  0  0  0  0  0  0  0  0  0
   11.0208   -3.0335   21.4535 H   0  0  0  0  0  0  0  0  0  0  0  0
   13.3644   -6.8792   23.1919 H   0  0  0  0  0  0  0  0  0  0  0  0
   15.1231   -6.3102   21.5712 H   0  0  0  0  0  0  0  0  0  0  0  0
   14.5284   -5.0130   19.5327 H   0  0  0  0  0  0  0  0  0  0  0  0
   12.2127   -4.6268   18.9828 H   0  0  0  0  0  0  0  0  0  0  0  0
    5.1336   -7.4304   23.7523 H   0  0  0  0  0  0  0  0  0  0  0  0
    3.8546   -7.9334   25.6666 H   0  0  0  0  0  0  0  0  0  0  0  0
    3.4465   -6.1739   27.4099 H   0  0  0  0  0  0  0  0  0  0  0  0
    4.0257   -3.6290   27.9981 H   0  0  0  0  0  0  0  0  0  0  0  0
    4.8860   -1.5359   26.9126 H   0  0  0  0  0  0  0  0  0  0  0  0
    5.7995   -2.2747   24.5183 H   0  0  0  0  0  0  0  0  0  0  0  0
  1  2  2  0
  2  3  1  0
  3  4  1  0
  4  5  1  0
  5  6  2  0
  6  7  1  0
  7  8  2  0
  8  9  1  0
  9 10  2  0
 10 11  1  0
 11 12  2  0
  2 13  1  0
 13 14  2  0
 14 15  1  0
 15 16  2  0
 16 17  1  0
 17 18  1  0
 18 19  1  0
 19 20  2  0
 20 21  1  0
 12  4  1  0
 21 13  1  0
 12  7  1  0
 21 17  2  0
  3 22  1  0
  5 23  1  0
  8 24  1  0
  9 25  1  0
 10 26  1  0
 11 27  1  0
 14 28  1  0
 15 29  1  0
 16 30  1  0
 18 31  1  0
 19 32  1  0
 20 33  1  0
M  END
>  <Energy>  (729) 
638.67597910198992

>  <compound_id>  (729) 
8501

>  <target_id>  (729) 
1

>  <reference_id>  (729) 
40

>  <inspiration_ids>  (729) 
[40, 103]

>  <energy_score>  (729) 
580.7305127209322

>  <distance_score>  (729) 
7.225608289105604

>  <path>  (729) 
/opt/xchem-fragalysis-2/maxwin/BulkDock/SCRATCH/511017/C8501-P40/C8501-P40.minimised.mol

>  <scratch_subdir>  (729) 
/opt/xchem-fragalysis-2/maxwin/BulkDock/SCRATCH/511017/C8501-P40

>  <fragmenstein_runtime>  (729) 
5.2068564891815186

>  <fragmenstein_outcome>  (729) 
too moved

>  <fragmenstein_mode>  (729) 
expansion

>  <fragmenstein_error>  (729) 


$$$$
C8501-P103
     RDKit          3D

 33 36  0  0  0  0  0  0  0  0999 V2000
   10.8839   -3.6732   28.3741 O   0  0  0  0  0  0  0  0  0  0  0  0
   10.1427   -3.1749   27.5773 C   0  0  0  0  0  0  0  0  0  0  0  0
   10.4111   -2.5304   26.3195 N   0  0  0  0  0  0  0  0  0  0  0  0
   11.5812   -2.2192   25.7123 N   0  0  0  0  0  0  0  0  0  0  0  0
   12.0138   -0.9220   25.6293 C   0  0  0  0  0  0  0  0  0  0  0  0
   12.9755   -0.7708   24.7451 N   0  0  0  0  0  0  0  0  0  0  0  0
   13.1641   -2.0280   24.2152 C   0  0  0  0  0  0  0  0  0  0  0  0
   14.0443   -2.4334   23.1920 C   0  0  0  0  0  0  0  0  0  0  0  0
   14.0235   -3.7626   22.7594 C   0  0  0  0  0  0  0  0  0  0  0  0
   13.1791   -4.6858   23.3732 C   0  0  0  0  0  0  0  0  0  0  0  0
   12.3161   -4.3107   24.4170 C   0  0  0  0  0  0  0  0  0  0  0  0
   12.3045   -2.9639   24.8058 C   0  0  0  0  0  0  0  0  0  0  0  0
    8.6746   -3.1108   27.9873 C   0  0  0  0  0  0  0  0  0  0  0  0
    7.9773   -1.8847   27.8902 C   0  0  0  0  0  0  0  0  0  0  0  0
    6.6826   -1.7211   28.3951 C   0  0  0  0  0  0  0  0  0  0  0  0
    6.0325   -2.7615   29.0505 C   0  0  0  0  0  0  0  0  0  0  0  0
    6.7166   -3.9755   29.1573 C   0  0  0  0  0  0  0  0  0  0  0  0
    6.3101   -5.1390   29.7694 N   0  0  0  0  0  0  0  0  0  0  0  0
    7.2512   -6.1141   29.6005 C   0  0  0  0  0  0  0  0  0  0  0  0
    8.3135   -5.5527   28.9246 C   0  0  0  0  0  0  0  0  0  0  0  0
    8.0028   -4.1886   28.6345 C   0  0  0  0  0  0  0  0  0  0  0  0
    9.5340   -2.3016   25.8717 H   0  0  0  0  0  0  0  0  0  0  0  0
   11.5824   -0.1321   26.2275 H   0  0  0  0  0  0  0  0  0  0  0  0
   14.6902   -1.7002   22.7228 H   0  0  0  0  0  0  0  0  0  0  0  0
   14.6803   -4.0733   21.9521 H   0  0  0  0  0  0  0  0  0  0  0  0
   13.1983   -5.7219   23.0452 H   0  0  0  0  0  0  0  0  0  0  0  0
   11.6671   -5.0327   24.9008 H   0  0  0  0  0  0  0  0  0  0  0  0
    8.4621   -1.0167   27.4493 H   0  0  0  0  0  0  0  0  0  0  0  0
    6.1813   -0.7615   28.2879 H   0  0  0  0  0  0  0  0  0  0  0  0
    5.0320   -2.6284   29.4489 H   0  0  0  0  0  0  0  0  0  0  0  0
    5.4403   -5.2283   30.2769 H   0  0  0  0  0  0  0  0  0  0  0  0
    7.1220   -7.1021   30.0183 H   0  0  0  0  0  0  0  0  0  0  0  0
    9.2417   -6.0526   28.6755 H   0  0  0  0  0  0  0  0  0  0  0  0
  1  2  2  0
  2  3  1  0
  3  4  1  0
  4  5  1  0
  5  6  2  0
  6  7  1  0
  7  8  2  0
  8  9  1  0
  9 10  2  0
 10 11  1  0
 11 12  2  0
  2 13  1  0
 13 14  2  0
 14 15  1  0
 15 16  2  0
 16 17  1  0
 17 18  1  0
 18 19  1  0
 19 20  2  0
 20 21  1  0
 12  4  1  0
 21 13  1  0
 12  7  1  0
 21 17  2  0
  3 22  1  0
  5 23  1  0
  8 24  1  0
  9 25  1  0
 10 26  1  0
 11 27  1  0
 14 28  1  0
 15 29  1  0
 16 30  1  0
 18 31  1  0
 19 32  1  0
 20 33  1  0
M  END
>  <Energy>  (730) 
43.622583920359638

>  <compound_id>  (730) 
8501

>  <target_id>  (730) 
1

>  <reference_id>  (730) 
103

>  <inspiration_ids>  (730) 
[40, 103]

>  <energy_score>  (730) 
-14.322882460691346

>  <distance_score>  (730) 
8.385629745327732

>  <path>  (730) 
/opt/xchem-fragalysis-2/maxwin/BulkDock/SCRATCH/511017/C8501-P103/C8501-P103.minimised.mol

>  <scratch_subdir>  (730) 
/opt/xchem-fragalysis-2/maxwin/BulkDock/SCRATCH/511017/C8501-P103

>  <fragmenstein_runtime>  (730) 
7.80134391784668

>  <fragmenstein_outcome>  (730) 
too moved

>  <fragmenstein_mode>  (730) 
expansion

>  <fragmenstein_error>  (730) 


$$$$
C8502-P40
     RDKit          3D

 46 49  0  0  0  0  0  0  0  0999 V2000
    1.8174   -4.4585   30.6555 C   0  0  0  0  0  0  0  0  0  0  0  0
    2.2555   -5.3691   29.6495 O   0  0  0  0  0  0  0  0  0  0  0  0
    3.4687   -5.1106   29.0571 C   0  0  0  0  0  0  0  0  0  0  0  0
    4.3458   -4.0726   29.3662 C   0  0  0  0  0  0  0  0  0  0  0  0
    5.5949   -3.9317   28.7108 C   0  0  0  0  0  0  0  0  0  0  0  0
    5.9666   -4.8719   27.7288 C   0  0  0  0  0  0  0  0  0  0  0  0
    5.0813   -5.9092   27.3941 C   0  0  0  0  0  0  0  0  0  0  0  0
    5.7079   -6.6789   26.3859 C   0  0  0  0  0  0  0  0  0  0  0  0
    6.9531   -6.1402   26.1567 C   0  0  0  0  0  0  0  0  0  0  0  0
    7.1254   -5.0261   26.9394 N   0  0  0  0  0  0  0  0  0  0  0  0
    8.3142   -4.1191   26.9425 C   0  0  0  0  0  0  0  0  0  0  0  0
    9.6641   -4.5189   26.1786 C   0  0  0  0  0  0  0  0  0  0  0  0
    9.9746   -5.6766   26.1004 O   0  0  0  0  0  0  0  0  0  0  0  0
   10.3828   -3.3040   25.7560 N   0  0  0  0  0  0  0  0  0  0  0  0
   11.7562   -3.1236   25.1926 C   0  0  0  0  0  0  0  0  0  0  0  0
   12.0487   -3.5070   23.7072 C   0  0  0  0  0  0  0  0  0  0  0  0
   13.1686   -2.8936   22.9843 N   0  0  0  0  0  0  0  0  0  0  0  0
   13.8631   -1.7610   23.3237 C   0  0  0  0  0  0  0  0  0  0  0  0
   14.6253   -1.3205   22.3453 N   0  0  0  0  0  0  0  0  0  0  0  0
   14.4364   -2.2017   21.3163 C   0  0  0  0  0  0  0  0  0  0  0  0
   14.9734   -2.1748   20.0170 C   0  0  0  0  0  0  0  0  0  0  0  0
   14.6259   -3.1862   19.1198 C   0  0  0  0  0  0  0  0  0  0  0  0
   13.7704   -4.2096   19.5186 C   0  0  0  0  0  0  0  0  0  0  0  0
   13.2169   -4.2513   20.8080 C   0  0  0  0  0  0  0  0  0  0  0  0
   13.5605   -3.2215   21.6914 C   0  0  0  0  0  0  0  0  0  0  0  0
    3.8330   -6.0162   28.0560 C   0  0  0  0  0  0  0  0  0  0  0  0
    1.6981   -3.4503   30.2458 H   0  0  0  0  0  0  0  0  0  0  0  0
    2.5022   -4.4599   31.5095 H   0  0  0  0  0  0  0  0  0  0  0  0
    0.8385   -4.7967   31.0084 H   0  0  0  0  0  0  0  0  0  0  0  0
    4.1022   -3.3371   30.1276 H   0  0  0  0  0  0  0  0  0  0  0  0
    6.2581   -3.1148   28.9791 H   0  0  0  0  0  0  0  0  0  0  0  0
    5.3129   -7.5550   25.8857 H   0  0  0  0  0  0  0  0  0  0  0  0
    7.7262   -6.4848   25.4895 H   0  0  0  0  0  0  0  0  0  0  0  0
    8.5895   -4.0248   28.0006 H   0  0  0  0  0  0  0  0  0  0  0  0
    7.9398   -3.1493   26.6039 H   0  0  0  0  0  0  0  0  0  0  0  0
    9.8581   -2.4877   26.0523 H   0  0  0  0  0  0  0  0  0  0  0  0
   11.9669   -2.0614   25.3486 H   0  0  0  0  0  0  0  0  0  0  0  0
   12.4337   -3.6916   25.8398 H   0  0  0  0  0  0  0  0  0  0  0  0
   11.1794   -3.2636   23.1064 H   0  0  0  0  0  0  0  0  0  0  0  0
   12.2043   -4.5903   23.6526 H   0  0  0  0  0  0  0  0  0  0  0  0
   13.7545   -1.2648   24.2777 H   0  0  0  0  0  0  0  0  0  0  0  0
   15.6494   -1.3776   19.7299 H   0  0  0  0  0  0  0  0  0  0  0  0
   15.0356   -3.1873   18.1135 H   0  0  0  0  0  0  0  0  0  0  0  0
   13.5254   -4.9935   18.8065 H   0  0  0  0  0  0  0  0  0  0  0  0
   12.5281   -5.0412   21.0842 H   0  0  0  0  0  0  0  0  0  0  0  0
    3.1635   -6.8233   27.7814 H   0  0  0  0  0  0  0  0  0  0  0  0
  1  2  1  0
  2  3  1  0
  3  4  2  0
  4  5  1  0
  5  6  2  0
  6  7  1  0
  7  8  1  0
  8  9  2  0
  9 10  1  0
 10 11  1  0
 11 12  1  0
 12 13  2  0
 12 14  1  0
 14 15  1  0
 15 16  1  0
 16 17  1  0
 17 18  1  0
 18 19  2  0
 19 20  1  0
 20 21  2  0
 21 22  1  0
 22 23  2  0
 23 24  1  0
 24 25  2  0
  7 26  2  0
 26  3  1  0
 10  6  1  0
 25 17  1  0
 25 20  1  0
  1 27  1  0
  1 28  1  0
  1 29  1  0
  4 30  1  0
  5 31  1  0
  8 32  1  0
  9 33  1  0
 11 34  1  0
 11 35  1  0
 14 36  1  0
 15 37  1  0
 15 38  1  0
 16 39  1  0
 16 40  1  0
 18 41  1  0
 21 42  1  0
 22 43  1  0
 23 44  1  0
 24 45  1  0
 26 46  1  0
M  END
>  <Energy>  (731) 
66.897291996800618

>  <compound_id>  (731) 
8502

>  <target_id>  (731) 
1

>  <reference_id>  (731) 
40

>  <inspiration_ids>  (731) 
[40, 103]

>  <energy_score>  (731) 
1.5855294264221698

>  <distance_score>  (731) 
5.58615608566404

>  <path>  (731) 
/opt/xchem-fragalysis-2/maxwin/BulkDock/SCRATCH/511017/C8502-P40/C8502-P40.minimised.mol

>  <scratch_subdir>  (731) 
/opt/xchem-fragalysis-2/maxwin/BulkDock/SCRATCH/511017/C8502-P40

>  <fragmenstein_runtime>  (731) 
7.432939767837524

>  <fragmenstein_outcome>  (731) 
too moved

>  <fragmenstein_mode>  (731) 
expansion

>  <fragmenstein_error>  (731) 


$$$$
C8502-P103
     RDKit          3D

 46 49  0  0  0  0  0  0  0  0999 V2000
    3.0262   -3.7929   31.3136 C   0  0  0  0  0  0  0  0  0  0  0  0
    4.3699   -3.4753   30.9365 O   0  0  0  0  0  0  0  0  0  0  0  0
    4.5463   -2.8712   29.7167 C   0  0  0  0  0  0  0  0  0  0  0  0
    5.8459   -2.8091   29.2113 C   0  0  0  0  0  0  0  0  0  0  0  0
    6.1379   -2.3477   27.8977 C   0  0  0  0  0  0  0  0  0  0  0  0
    5.0673   -2.0119   27.0338 C   0  0  0  0  0  0  0  0  0  0  0  0
    3.7964   -1.8833   27.6336 C   0  0  0  0  0  0  0  0  0  0  0  0
    2.9598   -1.3012   26.6938 C   0  0  0  0  0  0  0  0  0  0  0  0
    3.6259   -1.3537   25.5071 C   0  0  0  0  0  0  0  0  0  0  0  0
    4.9353   -1.8565   25.5879 N   0  0  0  0  0  0  0  0  0  0  0  0
    5.2126   -2.9256   24.2057 C   0  0  0  0  0  0  0  0  0  0  0  0
    7.1020   -3.5150   23.4794 C   0  0  0  0  0  0  0  0  0  0  0  0
    7.7260   -3.7503   24.4013 O   0  0  0  0  0  0  0  0  0  0  0  0
    8.3359   -3.4248   21.7832 N   0  0  0  0  0  0  0  0  0  0  0  0
   10.6342   -3.4178   21.5760 C   0  0  0  0  0  0  0  0  0  0  0  0
   11.9210   -3.5752   22.8260 C   0  0  0  0  0  0  0  0  0  0  0  0
   13.2962   -3.3308   22.2480 N   0  0  0  0  0  0  0  0  0  0  0  0
   14.1628   -2.4131   22.8118 C   0  0  0  0  0  0  0  0  0  0  0  0
   15.0183   -1.9256   21.9415 N   0  0  0  0  0  0  0  0  0  0  0  0
   14.7454   -2.5737   20.7698 C   0  0  0  0  0  0  0  0  0  0  0  0
   15.2992   -2.3606   19.4943 C   0  0  0  0  0  0  0  0  0  0  0  0
   14.8681   -3.1413   18.4203 C   0  0  0  0  0  0  0  0  0  0  0  0
   13.9451   -4.1583   18.6293 C   0  0  0  0  0  0  0  0  0  0  0  0
   13.4212   -4.4181   19.9050 C   0  0  0  0  0  0  0  0  0  0  0  0
   13.7713   -3.5585   20.9565 C   0  0  0  0  0  0  0  0  0  0  0  0
    3.5328   -2.3200   28.9534 C   0  0  0  0  0  0  0  0  0  0  0  0
    2.5309   -4.3954   30.5447 H   0  0  0  0  0  0  0  0  0  0  0  0
    2.4605   -2.8821   31.5329 H   0  0  0  0  0  0  0  0  0  0  0  0
    3.0715   -4.3897   32.2296 H   0  0  0  0  0  0  0  0  0  0  0  0
    6.6693   -3.1775   29.8189 H   0  0  0  0  0  0  0  0  0  0  0  0
    7.1517   -2.4092   27.5101 H   0  0  0  0  0  0  0  0  0  0  0  0
    1.9152   -1.0627   26.8220 H   0  0  0  0  0  0  0  0  0  0  0  0
    3.1716   -1.3422   24.5550 H   0  0  0  0  0  0  0  0  0  0  0  0
    4.8967   -2.1215   23.5065 H   0  0  0  0  0  0  0  0  0  0  0  0
    4.4632   -3.6219   24.6210 H   0  0  0  0  0  0  0  0  0  0  0  0
    7.7650   -3.3119   20.9934 H   0  0  0  0  0  0  0  0  0  0  0  0
   11.1242   -4.4659   21.1579 H   0  0  0  0  0  0  0  0  0  0  0  0
   11.2160   -3.1136   20.7198 H   0  0  0  0  0  0  0  0  0  0  0  0
   11.9763   -4.5915   23.2294 H   0  0  0  0  0  0  0  0  0  0  0  0
   11.7758   -2.8581   23.6427 H   0  0  0  0  0  0  0  0  0  0  0  0
   14.0573   -2.0815   23.8363 H   0  0  0  0  0  0  0  0  0  0  0  0
   16.0413   -1.5811   19.3588 H   0  0  0  0  0  0  0  0  0  0  0  0
   15.2696   -2.9598   17.4267 H   0  0  0  0  0  0  0  0  0  0  0  0
   13.6053   -4.7428   17.7794 H   0  0  0  0  0  0  0  0  0  0  0  0
   12.7039   -5.2160   20.0400 H   0  0  0  0  0  0  0  0  0  0  0  0
    2.5157   -2.2406   29.3170 H   0  0  0  0  0  0  0  0  0  0  0  0
  1  2  1  0
  2  3  1  0
  3  4  2  0
  4  5  1  0
  5  6  2  0
  6  7  1  0
  7  8  1  0
  8  9  2  0
  9 10  1  0
 10 11  1  0
 11 12  1  0
 12 13  2  0
 12 14  1  0
 14 15  1  0
 15 16  1  0
 16 17  1  0
 17 18  1  0
 18 19  2  0
 19 20  1  0
 20 21  2  0
 21 22  1  0
 22 23  2  0
 23 24  1  0
 24 25  2  0
  7 26  2  0
 26  3  1  0
 10  6  1  0
 25 17  1  0
 25 20  1  0
  1 27  1  0
  1 28  1  0
  1 29  1  0
  4 30  1  0
  5 31  1  0
  8 32  1  0
  9 33  1  0
 11 34  1  0
 11 35  1  0
 14 36  1  0
 15 37  1  0
 15 38  1  0
 16 39  1  0
 16 40  1  0
 18 41  1  0
 21 42  1  0
 22 43  1  0
 23 44  1  0
 24 45  1  0
 26 46  1  0
M  END
>  <Energy>  (732) 
817.05680674267512

>  <compound_id>  (732) 
8502

>  <target_id>  (732) 
1

>  <reference_id>  (732) 
103

>  <inspiration_ids>  (732) 
[40, 103]

>  <energy_score>  (732) 
751.7450441722881

>  <distance_score>  (732) 
5.836942890884029

>  <path>  (732) 
/opt/xchem-fragalysis-2/maxwin/BulkDock/SCRATCH/511017/C8502-P103/C8502-P103.minimised.mol

>  <scratch_subdir>  (732) 
/opt/xchem-fragalysis-2/maxwin/BulkDock/SCRATCH/511017/C8502-P103

>  <fragmenstein_runtime>  (732) 
11.454602003097534

>  <fragmenstein_outcome>  (732) 
too moved

>  <fragmenstein_mode>  (732) 
expansion

>  <fragmenstein_error>  (732) 


$$$$
C8503-P40
     RDKit          3D

 46 49  0  0  0  0  0  0  0  0999 V2000
    0.6114   -6.3628   29.7846 C   0  0  0  0  0  0  0  0  0  0  0  0
    1.4710   -6.7473   28.7106 O   0  0  0  0  0  0  0  0  0  0  0  0
    2.3147   -5.7719   28.2229 C   0  0  0  0  0  0  0  0  0  0  0  0
    2.3612   -4.4595   28.7166 C   0  0  0  0  0  0  0  0  0  0  0  0
    3.2487   -3.5249   28.1895 C   0  0  0  0  0  0  0  0  0  0  0  0
    4.1258   -3.8597   27.1551 C   0  0  0  0  0  0  0  0  0  0  0  0
    4.0821   -5.1639   26.6367 C   0  0  0  0  0  0  0  0  0  0  0  0
    3.1892   -6.1149   27.1522 C   0  0  0  0  0  0  0  0  0  0  0  0
    3.4064   -7.2950   26.3929 C   0  0  0  0  0  0  0  0  0  0  0  0
    4.4114   -7.0677   25.4849 C   0  0  0  0  0  0  0  0  0  0  0  0
    4.8334   -5.7792   25.6245 N   0  0  0  0  0  0  0  0  0  0  0  0
    5.9691   -5.1367   24.9333 C   0  0  0  0  0  0  0  0  0  0  0  0
    6.5052   -5.6587   23.5364 C   0  0  0  0  0  0  0  0  0  0  0  0
    6.5960   -6.8244   23.3179 O   0  0  0  0  0  0  0  0  0  0  0  0
    6.9270   -4.4651   22.6985 N   0  0  0  0  0  0  0  0  0  0  0  0
    7.8897   -4.3546   21.0089 C   0  0  0  0  0  0  0  0  0  0  0  0
    9.9160   -4.9991   20.7600 C   0  0  0  0  0  0  0  0  0  0  0  0
   11.4354   -4.3942   21.3229 N   0  0  0  0  0  0  0  0  0  0  0  0
   11.7848   -3.9361   22.5794 C   0  0  0  0  0  0  0  0  0  0  0  0
   13.0374   -3.5647   22.6914 N   0  0  0  0  0  0  0  0  0  0  0  0
   13.5706   -3.6885   21.4528 C   0  0  0  0  0  0  0  0  0  0  0  0
   14.8559   -3.3143   21.0195 C   0  0  0  0  0  0  0  0  0  0  0  0
   15.2071   -3.4476   19.6762 C   0  0  0  0  0  0  0  0  0  0  0  0
   14.2816   -3.9321   18.7715 C   0  0  0  0  0  0  0  0  0  0  0  0
   13.0030   -4.3072   19.1959 C   0  0  0  0  0  0  0  0  0  0  0  0
   12.6428   -4.2206   20.5606 C   0  0  0  0  0  0  0  0  0  0  0  0
    1.1843   -6.0715   30.6707 H   0  0  0  0  0  0  0  0  0  0  0  0
   -0.0684   -5.5581   29.4888 H   0  0  0  0  0  0  0  0  0  0  0  0
    0.0032   -7.2334   30.0494 H   0  0  0  0  0  0  0  0  0  0  0  0
    1.7159   -4.1223   29.5213 H   0  0  0  0  0  0  0  0  0  0  0  0
    3.2663   -2.5144   28.5941 H   0  0  0  0  0  0  0  0  0  0  0  0
    4.8225   -3.1189   26.7742 H   0  0  0  0  0  0  0  0  0  0  0  0
    2.8885   -8.2360   26.4832 H   0  0  0  0  0  0  0  0  0  0  0  0
    4.8496   -7.7367   24.7528 H   0  0  0  0  0  0  0  0  0  0  0  0
    6.8052   -5.2230   25.6390 H   0  0  0  0  0  0  0  0  0  0  0  0
    5.6900   -4.0835   24.8675 H   0  0  0  0  0  0  0  0  0  0  0  0
    6.6219   -3.6111   23.1543 H   0  0  0  0  0  0  0  0  0  0  0  0
    7.2259   -4.5976   20.1408 H   0  0  0  0  0  0  0  0  0  0  0  0
    7.7773   -3.3045   21.1286 H   0  0  0  0  0  0  0  0  0  0  0  0
   10.0705   -5.3637   19.7351 H   0  0  0  0  0  0  0  0  0  0  0  0
   10.3107   -5.9744   21.1376 H   0  0  0  0  0  0  0  0  0  0  0  0
   11.1216   -3.8614   23.4266 H   0  0  0  0  0  0  0  0  0  0  0  0
   15.5592   -2.9105   21.7399 H   0  0  0  0  0  0  0  0  0  0  0  0
   16.2006   -3.1608   19.3448 H   0  0  0  0  0  0  0  0  0  0  0  0
   14.5384   -4.0190   17.7188 H   0  0  0  0  0  0  0  0  0  0  0  0
   12.2876   -4.5621   18.4291 H   0  0  0  0  0  0  0  0  0  0  0  0
  1  2  1  0
  2  3  1  0
  3  4  2  0
  4  5  1  0
  5  6  2  0
  6  7  1  0
  7  8  2  0
  8  9  1  0
  9 10  2  0
 10 11  1  0
 11 12  1  0
 12 13  1  0
 13 14  2  0
 13 15  1  0
 15 16  1  0
 16 17  1  0
 17 18  1  0
 18 19  1  0
 19 20  2  0
 20 21  1  0
 21 22  2  0
 22 23  1  0
 23 24  2  0
 24 25  1  0
 25 26  2  0
  8  3  1  0
 26 18  1  0
 11  7  1  0
 26 21  1  0
  1 27  1  0
  1 28  1  0
  1 29  1  0
  4 30  1  0
  5 31  1  0
  6 32  1  0
  9 33  1  0
 10 34  1  0
 12 35  1  0
 12 36  1  0
 15 37  1  0
 16 38  1  0
 16 39  1  0
 17 40  1  0
 17 41  1  0
 19 42  1  0
 22 43  1  0
 23 44  1  0
 24 45  1  0
 25 46  1  0
M  END
>  <Energy>  (733) 
293.31234310566413

>  <compound_id>  (733) 
8503

>  <target_id>  (733) 
1

>  <reference_id>  (733) 
40

>  <inspiration_ids>  (733) 
[40, 103]

>  <energy_score>  (733) 
221.39567354628713

>  <distance_score>  (733) 
5.439546459793024

>  <path>  (733) 
/opt/xchem-fragalysis-2/maxwin/BulkDock/SCRATCH/511017/C8503-P40/C8503-P40.minimised.mol

>  <scratch_subdir>  (733) 
/opt/xchem-fragalysis-2/maxwin/BulkDock/SCRATCH/511017/C8503-P40

>  <fragmenstein_runtime>  (733) 
10.670289754867554

>  <fragmenstein_outcome>  (733) 
too moved

>  <fragmenstein_mode>  (733) 
expansion

>  <fragmenstein_error>  (733) 


$$$$
C8503-P103
     RDKit          3D

 46 49  0  0  0  0  0  0  0  0999 V2000
    3.6990   -2.3326   28.7403 C   0  0  0  0  0  0  0  0  0  0  0  0
    4.6021   -2.3804   29.8452 O   0  0  0  0  0  0  0  0  0  0  0  0
    5.6541   -3.2372   29.5851 C   0  0  0  0  0  0  0  0  0  0  0  0
    5.6842   -4.4460   30.2834 C   0  0  0  0  0  0  0  0  0  0  0  0
    6.7557   -5.3157   30.1072 C   0  0  0  0  0  0  0  0  0  0  0  0
    7.8301   -4.9920   29.2577 C   0  0  0  0  0  0  0  0  0  0  0  0
    7.8219   -3.7521   28.5901 C   0  0  0  0  0  0  0  0  0  0  0  0
    6.7374   -2.8714   28.7461 C   0  0  0  0  0  0  0  0  0  0  0  0
    7.0258   -1.7295   27.9534 C   0  0  0  0  0  0  0  0  0  0  0  0
    8.2357   -1.9295   27.3290 C   0  0  0  0  0  0  0  0  0  0  0  0
    8.7457   -3.1378   27.7321 N   0  0  0  0  0  0  0  0  0  0  0  0
   10.0413   -3.7038   27.2868 C   0  0  0  0  0  0  0  0  0  0  0  0
   11.1411   -2.7007   26.7820 C   0  0  0  0  0  0  0  0  0  0  0  0
   11.4771   -1.8333   27.5415 O   0  0  0  0  0  0  0  0  0  0  0  0
   11.6516   -3.0574   25.4589 N   0  0  0  0  0  0  0  0  0  0  0  0
   12.6731   -2.4025   24.6012 C   0  0  0  0  0  0  0  0  0  0  0  0
   13.2861   -3.2557   23.4427 C   0  0  0  0  0  0  0  0  0  0  0  0
   14.0649   -2.5808   22.4005 N   0  0  0  0  0  0  0  0  0  0  0  0
   14.7577   -1.4044   22.5290 C   0  0  0  0  0  0  0  0  0  0  0  0
   15.2301   -0.9712   21.3799 N   0  0  0  0  0  0  0  0  0  0  0  0
   14.8379   -1.9002   20.4526 C   0  0  0  0  0  0  0  0  0  0  0  0
   15.0334   -1.9037   19.0595 C   0  0  0  0  0  0  0  0  0  0  0  0
   14.5049   -2.9518   18.3002 C   0  0  0  0  0  0  0  0  0  0  0  0
   13.8067   -3.9840   18.9230 C   0  0  0  0  0  0  0  0  0  0  0  0
   13.6173   -4.0104   20.3140 C   0  0  0  0  0  0  0  0  0  0  0  0
   14.1372   -2.9436   21.0599 C   0  0  0  0  0  0  0  0  0  0  0  0
    3.0883   -3.2406   28.7186 H   0  0  0  0  0  0  0  0  0  0  0  0
    3.0281   -1.4822   28.8953 H   0  0  0  0  0  0  0  0  0  0  0  0
    4.2018   -2.1921   27.7785 H   0  0  0  0  0  0  0  0  0  0  0  0
    4.8780   -4.6887   30.9693 H   0  0  0  0  0  0  0  0  0  0  0  0
    6.7862   -6.2464   30.6676 H   0  0  0  0  0  0  0  0  0  0  0  0
    8.6692   -5.6727   29.1566 H   0  0  0  0  0  0  0  0  0  0  0  0
    6.4006   -0.8544   27.8407 H   0  0  0  0  0  0  0  0  0  0  0  0
    8.7802   -1.2890   26.6498 H   0  0  0  0  0  0  0  0  0  0  0  0
   10.4691   -4.2051   28.1639 H   0  0  0  0  0  0  0  0  0  0  0  0
    9.8096   -4.4771   26.5550 H   0  0  0  0  0  0  0  0  0  0  0  0
   11.0717   -3.7958   25.0670 H   0  0  0  0  0  0  0  0  0  0  0  0
   12.1934   -1.4998   24.2131 H   0  0  0  0  0  0  0  0  0  0  0  0
   13.4699   -2.0583   25.2704 H   0  0  0  0  0  0  0  0  0  0  0  0
   12.4728   -3.7872   22.9372 H   0  0  0  0  0  0  0  0  0  0  0  0
   13.9506   -4.0171   23.8679 H   0  0  0  0  0  0  0  0  0  0  0  0
   14.8713   -0.8922   23.4752 H   0  0  0  0  0  0  0  0  0  0  0  0
   15.5763   -1.0895   18.5920 H   0  0  0  0  0  0  0  0  0  0  0  0
   14.6347   -2.9530   17.2209 H   0  0  0  0  0  0  0  0  0  0  0  0
   13.3703   -4.7684   18.3128 H   0  0  0  0  0  0  0  0  0  0  0  0
   13.0386   -4.8011   20.7765 H   0  0  0  0  0  0  0  0  0  0  0  0
  1  2  1  0
  2  3  1  0
  3  4  2  0
  4  5  1  0
  5  6  2  0
  6  7  1  0
  7  8  2  0
  8  9  1  0
  9 10  2  0
 10 11  1  0
 11 12  1  0
 12 13  1  0
 13 14  2  0
 13 15  1  0
 15 16  1  0
 16 17  1  0
 17 18  1  0
 18 19  1  0
 19 20  2  0
 20 21  1  0
 21 22  2  0
 22 23  1  0
 23 24  2  0
 24 25  1  0
 25 26  2  0
  8  3  1  0
 26 18  1  0
 11  7  1  0
 26 21  1  0
  1 27  1  0
  1 28  1  0
  1 29  1  0
  4 30  1  0
  5 31  1  0
  6 32  1  0
  9 33  1  0
 10 34  1  0
 12 35  1  0
 12 36  1  0
 15 37  1  0
 16 38  1  0
 16 39  1  0
 17 40  1  0
 17 41  1  0
 19 42  1  0
 22 43  1  0
 23 44  1  0
 24 45  1  0
 25 46  1  0
M  END
>  <Energy>  (734) 
72.97339192297504

>  <compound_id>  (734) 
8503

>  <target_id>  (734) 
1

>  <reference_id>  (734) 
103

>  <inspiration_ids>  (734) 
[40, 103]

>  <energy_score>  (734) 
1.0567223635942469

>  <distance_score>  (734) 
6.329014870934068

>  <path>  (734) 
/opt/xchem-fragalysis-2/maxwin/BulkDock/SCRATCH/511017/C8503-P103/C8503-P103.minimised.mol

>  <scratch_subdir>  (734) 
/opt/xchem-fragalysis-2/maxwin/BulkDock/SCRATCH/511017/C8503-P103

>  <fragmenstein_runtime>  (734) 
12.658983707427979

>  <fragmenstein_outcome>  (734) 
too moved

>  <fragmenstein_mode>  (734) 
expansion

>  <fragmenstein_error>  (734) 


$$$$
C8507-P40
     RDKit          3D

 36 39  0  0  0  0  0  0  0  0999 V2000
    8.4938   -3.7025   20.0313 O   0  0  0  0  0  0  0  0  0  0  0  0
    8.7851   -4.5416   20.7324 C   0  0  0  0  0  0  0  0  0  0  0  0
    7.2370   -5.0946   22.1194 C   0  0  0  0  0  0  0  0  0  0  0  0
    6.6706   -5.5155   23.9661 C   0  0  0  0  0  0  0  0  0  0  0  0
    7.3534   -5.2837   25.2270 C   0  0  0  0  0  0  0  0  0  0  0  0
    6.4482   -4.8072   26.1302 N   0  0  0  0  0  0  0  0  0  0  0  0
    5.3397   -5.5563   25.9744 C   0  0  0  0  0  0  0  0  0  0  0  0
    4.3301   -5.7367   26.9275 C   0  0  0  0  0  0  0  0  0  0  0  0
    3.4296   -6.7422   26.6884 C   0  0  0  0  0  0  0  0  0  0  0  0
    3.5486   -7.4798   25.5257 C   0  0  0  0  0  0  0  0  0  0  0  0
    2.6964   -8.5005   25.3758 F   0  0  0  0  0  0  0  0  0  0  0  0
    4.5129   -7.1993   24.5301 C   0  0  0  0  0  0  0  0  0  0  0  0
    5.4768   -6.1756   24.7028 C   0  0  0  0  0  0  0  0  0  0  0  0
   10.4421   -5.3385   20.9072 N   0  0  0  0  0  0  0  0  0  0  0  0
   11.8888   -4.9776   20.2240 N   0  0  0  0  0  0  0  0  0  0  0  0
   12.8331   -4.8667   21.2434 C   0  0  0  0  0  0  0  0  0  0  0  0
   13.9655   -4.3113   20.8981 N   0  0  0  0  0  0  0  0  0  0  0  0
   13.8239   -4.0171   19.5771 C   0  0  0  0  0  0  0  0  0  0  0  0
   14.7513   -3.3538   18.7470 C   0  0  0  0  0  0  0  0  0  0  0  0
   14.4528   -3.1077   17.4066 C   0  0  0  0  0  0  0  0  0  0  0  0
   13.2426   -3.5257   16.8862 C   0  0  0  0  0  0  0  0  0  0  0  0
   12.3111   -4.1800   17.6993 C   0  0  0  0  0  0  0  0  0  0  0  0
   12.5826   -4.4341   19.0764 C   0  0  0  0  0  0  0  0  0  0  0  0
    6.9014   -4.0948   22.4751 H   0  0  0  0  0  0  0  0  0  0  0  0
    6.7232   -6.0325   21.8451 H   0  0  0  0  0  0  0  0  0  0  0  0
    8.3780   -5.0222   25.4753 H   0  0  0  0  0  0  0  0  0  0  0  0
    6.6931   -4.2871   26.9600 H   0  0  0  0  0  0  0  0  0  0  0  0
    4.3242   -5.1791   27.8578 H   0  0  0  0  0  0  0  0  0  0  0  0
    2.6729   -6.9851   27.4203 H   0  0  0  0  0  0  0  0  0  0  0  0
    4.5035   -7.8105   23.6429 H   0  0  0  0  0  0  0  0  0  0  0  0
   10.4092   -6.1013   21.5310 H   0  0  0  0  0  0  0  0  0  0  0  0
   12.6006   -5.1841   22.2492 H   0  0  0  0  0  0  0  0  0  0  0  0
   15.7023   -3.0429   19.1668 H   0  0  0  0  0  0  0  0  0  0  0  0
   15.1788   -2.6058   16.7741 H   0  0  0  0  0  0  0  0  0  0  0  0
   13.0130   -3.3613   15.8365 H   0  0  0  0  0  0  0  0  0  0  0  0
   11.3880   -4.5017   17.2450 H   0  0  0  0  0  0  0  0  0  0  0  0
  1  2  2  0
  2  3  1  0
  3  4  1  0
  4  5  2  0
  5  6  1  0
  6  7  1  0
  7  8  2  0
  8  9  1  0
  9 10  2  0
 10 11  1  0
 10 12  1  0
 12 13  2  0
  2 14  1  0
 14 15  1  0
 15 16  1  0
 16 17  2  0
 17 18  1  0
 18 19  2  0
 19 20  1  0
 20 21  2  0
 21 22  1  0
 22 23  2  0
 13  4  1  0
 23 15  1  0
 13  7  1  0
 23 18  1  0
  3 24  1  0
  3 25  1  0
  5 26  1  0
  6 27  1  0
  8 28  1  0
  9 29  1  0
 12 30  1  0
 14 31  1  0
 16 32  1  0
 19 33  1  0
 20 34  1  0
 21 35  1  0
 22 36  1  0
M  END
>  <Energy>  (735) 
411.4908064253429

>  <compound_id>  (735) 
8507

>  <target_id>  (735) 
1

>  <reference_id>  (735) 
40

>  <inspiration_ids>  (735) 
[40, 103]

>  <energy_score>  (735) 
362.46002195568065

>  <distance_score>  (735) 
6.178853238073591

>  <path>  (735) 
/opt/xchem-fragalysis-2/maxwin/BulkDock/SCRATCH/511017/C8507-P40/C8507-P40.minimised.mol

>  <scratch_subdir>  (735) 
/opt/xchem-fragalysis-2/maxwin/BulkDock/SCRATCH/511017/C8507-P40

>  <fragmenstein_runtime>  (735) 
6.582334041595459

>  <fragmenstein_outcome>  (735) 
too moved

>  <fragmenstein_mode>  (735) 
expansion

>  <fragmenstein_error>  (735) 


$$$$
C8507-P103
     RDKit          3D

 36 39  0  0  0  0  0  0  0  0999 V2000
    8.1214   -5.4393   23.3544 O   0  0  0  0  0  0  0  0  0  0  0  0
    7.8000   -4.4676   22.6958 C   0  0  0  0  0  0  0  0  0  0  0  0
    6.6250   -4.0183   23.1218 C   0  0  0  0  0  0  0  0  0  0  0  0
    5.6443   -2.5981   24.2044 C   0  0  0  0  0  0  0  0  0  0  0  0
    5.0762   -1.5198   23.5914 C   0  0  0  0  0  0  0  0  0  0  0  0
    4.7798   -0.5259   24.5188 N   0  0  0  0  0  0  0  0  0  0  0  0
    4.6706   -1.0386   25.7620 C   0  0  0  0  0  0  0  0  0  0  0  0
    4.1794   -0.4707   26.9512 C   0  0  0  0  0  0  0  0  0  0  0  0
    3.3559   -1.2820   27.7267 C   0  0  0  0  0  0  0  0  0  0  0  0
    2.9385   -2.4781   27.1866 C   0  0  0  0  0  0  0  0  0  0  0  0
    1.9878   -3.1973   27.8133 F   0  0  0  0  0  0  0  0  0  0  0  0
    3.4755   -2.9232   25.9617 C   0  0  0  0  0  0  0  0  0  0  0  0
    4.5964   -2.3540   25.3512 C   0  0  0  0  0  0  0  0  0  0  0  0
    8.7740   -3.4479   21.4362 N   0  0  0  0  0  0  0  0  0  0  0  0
   10.8769   -3.5773   21.0579 N   0  0  0  0  0  0  0  0  0  0  0  0
   11.7807   -3.6460   22.4544 C   0  0  0  0  0  0  0  0  0  0  0  0
   12.6677   -4.5890   22.5902 N   0  0  0  0  0  0  0  0  0  0  0  0
   13.1078   -4.8129   21.3593 C   0  0  0  0  0  0  0  0  0  0  0  0
   14.3526   -5.3894   21.0295 C   0  0  0  0  0  0  0  0  0  0  0  0
   14.8877   -5.2568   19.7493 C   0  0  0  0  0  0  0  0  0  0  0  0
   14.1870   -4.5587   18.7917 C   0  0  0  0  0  0  0  0  0  0  0  0
   12.9175   -4.0628   19.0893 C   0  0  0  0  0  0  0  0  0  0  0  0
   12.2769   -4.2756   20.3871 C   0  0  0  0  0  0  0  0  0  0  0  0
    6.3287   -4.9402   23.7149 H   0  0  0  0  0  0  0  0  0  0  0  0
    7.1653   -3.7690   24.0519 H   0  0  0  0  0  0  0  0  0  0  0  0
    4.9958   -1.2987   22.5520 H   0  0  0  0  0  0  0  0  0  0  0  0
    4.3610    0.3473   24.2337 H   0  0  0  0  0  0  0  0  0  0  0  0
    4.3100    0.5806   27.1780 H   0  0  0  0  0  0  0  0  0  0  0  0
    2.9181   -0.9200   28.6489 H   0  0  0  0  0  0  0  0  0  0  0  0
    2.9704   -3.6579   25.3776 H   0  0  0  0  0  0  0  0  0  0  0  0
    8.2665   -2.7362   21.1800 H   0  0  0  0  0  0  0  0  0  0  0  0
   11.4774   -3.0021   23.2675 H   0  0  0  0  0  0  0  0  0  0  0  0
   14.9493   -5.8304   21.8233 H   0  0  0  0  0  0  0  0  0  0  0  0
   15.8784   -5.6493   19.5353 H   0  0  0  0  0  0  0  0  0  0  0  0
   14.6235   -4.3775   17.8124 H   0  0  0  0  0  0  0  0  0  0  0  0
   12.4475   -3.4797   18.3037 H   0  0  0  0  0  0  0  0  0  0  0  0
  1  2  2  0
  2  3  1  0
  3  4  1  0
  4  5  2  0
  5  6  1  0
  6  7  1  0
  7  8  2  0
  8  9  1  0
  9 10  2  0
 10 11  1  0
 10 12  1  0
 12 13  2  0
  2 14  1  0
 14 15  1  0
 15 16  1  0
 16 17  2  0
 17 18  1  0
 18 19  2  0
 19 20  1  0
 20 21  2  0
 21 22  1  0
 22 23  2  0
 13  4  1  0
 23 15  1  0
 13  7  1  0
 23 18  1  0
  3 24  1  0
  3 25  1  0
  5 26  1  0
  6 27  1  0
  8 28  1  0
  9 29  1  0
 12 30  1  0
 14 31  1  0
 16 32  1  0
 19 33  1  0
 20 34  1  0
 21 35  1  0
 22 36  1  0
M  END
>  <Energy>  (736) 
677.19295049103607

>  <compound_id>  (736) 
8507

>  <target_id>  (736) 
1

>  <reference_id>  (736) 
103

>  <inspiration_ids>  (736) 
[40, 103]

>  <energy_score>  (736) 
628.1621660213802

>  <distance_score>  (736) 
6.578647717671547

>  <path>  (736) 
/opt/xchem-fragalysis-2/maxwin/BulkDock/SCRATCH/511017/C8507-P103/C8507-P103.minimised.mol

>  <scratch_subdir>  (736) 
/opt/xchem-fragalysis-2/maxwin/BulkDock/SCRATCH/511017/C8507-P103

>  <fragmenstein_runtime>  (736) 
7.726815462112427

>  <fragmenstein_outcome>  (736) 
too moved

>  <fragmenstein_mode>  (736) 
expansion

>  <fragmenstein_error>  (736) 


$$$$
C8508-P40
     RDKit          3D

 34 37  0  0  0  0  0  0  0  0999 V2000
    6.4302   -7.6186   19.5138 O   0  0  0  0  0  0  0  0  0  0  0  0
    7.0146   -7.0653   20.5527 C   0  0  0  0  0  0  0  0  0  0  0  0
    9.0230   -7.5845   20.1612 C   0  0  0  0  0  0  0  0  0  0  0  0
   10.4879   -7.6295   21.2358 N   0  0  0  0  0  0  0  0  0  0  0  0
   11.3257   -6.4951   21.4281 C   0  0  0  0  0  0  0  0  0  0  0  0
   12.3618   -6.7442   22.1725 N   0  0  0  0  0  0  0  0  0  0  0  0
   12.3485   -8.0965   22.3109 C   0  0  0  0  0  0  0  0  0  0  0  0
   13.3758   -8.8880   22.8268 C   0  0  0  0  0  0  0  0  0  0  0  0
   13.2429  -10.2718   22.7650 C   0  0  0  0  0  0  0  0  0  0  0  0
   12.0952  -10.8541   22.2340 C   0  0  0  0  0  0  0  0  0  0  0  0
   11.0411  -10.0817   21.7402 C   0  0  0  0  0  0  0  0  0  0  0  0
   11.1941   -8.6926   21.7712 C   0  0  0  0  0  0  0  0  0  0  0  0
    6.4201   -6.5887   22.3907 C   0  0  0  0  0  0  0  0  0  0  0  0
    6.6830   -5.4645   23.1641 C   0  0  0  0  0  0  0  0  0  0  0  0
    6.4380   -5.3340   24.5019 N   0  0  0  0  0  0  0  0  0  0  0  0
    5.5061   -6.1932   24.9014 C   0  0  0  0  0  0  0  0  0  0  0  0
    4.8542   -6.1989   26.1453 C   0  0  0  0  0  0  0  0  0  0  0  0
    3.8243   -7.0891   26.3280 C   0  0  0  0  0  0  0  0  0  0  0  0
    3.5045   -7.9460   25.2982 C   0  0  0  0  0  0  0  0  0  0  0  0
    2.5265   -8.8271   25.5334 F   0  0  0  0  0  0  0  0  0  0  0  0
    4.1733   -7.9214   24.0531 C   0  0  0  0  0  0  0  0  0  0  0  0
    5.2623   -6.9744   23.7586 C   0  0  0  0  0  0  0  0  0  0  0  0
    9.4578   -6.6450   19.7684 H   0  0  0  0  0  0  0  0  0  0  0  0
    9.2362   -8.4717   19.5267 H   0  0  0  0  0  0  0  0  0  0  0  0
   11.1042   -5.5313   20.9853 H   0  0  0  0  0  0  0  0  0  0  0  0
   14.2749   -8.4261   23.2197 H   0  0  0  0  0  0  0  0  0  0  0  0
   14.0464  -10.9031   23.1374 H   0  0  0  0  0  0  0  0  0  0  0  0
   12.0203  -11.9399   22.1968 H   0  0  0  0  0  0  0  0  0  0  0  0
   10.1912  -10.5805   21.2909 H   0  0  0  0  0  0  0  0  0  0  0  0
    7.0000   -4.5481   22.7557 H   0  0  0  0  0  0  0  0  0  0  0  0
    6.7421   -4.5135   25.0177 H   0  0  0  0  0  0  0  0  0  0  0  0
    5.1389   -5.5021   26.9286 H   0  0  0  0  0  0  0  0  0  0  0  0
    3.2852   -7.1296   27.2650 H   0  0  0  0  0  0  0  0  0  0  0  0
    3.8406   -8.6415   23.3028 H   0  0  0  0  0  0  0  0  0  0  0  0
  1  2  2  0
  2  3  1  0
  3  4  1  0
  4  5  1  0
  5  6  2  0
  6  7  1  0
  7  8  2  0
  8  9  1  0
  9 10  2  0
 10 11  1  0
 11 12  2  0
  2 13  1  0
 13 14  2  0
 14 15  1  0
 15 16  1  0
 16 17  2  0
 17 18  1  0
 18 19  2  0
 19 20  1  0
 19 21  1  0
 21 22  2  0
 12  4  1  0
 22 13  1  0
 12  7  1  0
 22 16  1  0
  3 23  1  0
  3 24  1  0
  5 25  1  0
  8 26  1  0
  9 27  1  0
 10 28  1  0
 11 29  1  0
 14 30  1  0
 15 31  1  0
 17 32  1  0
 18 33  1  0
 21 34  1  0
M  END
>  <Energy>  (737) 
370.78952804744273

>  <compound_id>  (737) 
8508

>  <target_id>  (737) 
1

>  <reference_id>  (737) 
40

>  <inspiration_ids>  (737) 
[40, 103]

>  <energy_score>  (737) 
306.7645674308061

>  <distance_score>  (737) 
8.56161639462215

>  <path>  (737) 
/opt/xchem-fragalysis-2/maxwin/BulkDock/SCRATCH/511017/C8508-P40/C8508-P40.minimised.mol

>  <scratch_subdir>  (737) 
/opt/xchem-fragalysis-2/maxwin/BulkDock/SCRATCH/511017/C8508-P40

>  <fragmenstein_runtime>  (737) 
6.919377088546753

>  <fragmenstein_outcome>  (737) 
too moved

>  <fragmenstein_mode>  (737) 
expansion

>  <fragmenstein_error>  (737) 


$$$$
C8508-P103
     RDKit          3D

 34 37  0  0  0  0  0  0  0  0999 V2000
    8.2749   -4.3455   20.4197 O   0  0  0  0  0  0  0  0  0  0  0  0
    8.4503   -3.5638   21.3810 C   0  0  0  0  0  0  0  0  0  0  0  0
   10.7517   -3.3750   21.4252 C   0  0  0  0  0  0  0  0  0  0  0  0
   12.4269   -3.4966   20.6906 N   0  0  0  0  0  0  0  0  0  0  0  0
   13.4731   -3.3904   21.6309 C   0  0  0  0  0  0  0  0  0  0  0  0
   14.6311   -3.1090   21.0965 N   0  0  0  0  0  0  0  0  0  0  0  0
   14.4265   -3.1867   19.7569 C   0  0  0  0  0  0  0  0  0  0  0  0
   15.3822   -2.9705   18.7440 C   0  0  0  0  0  0  0  0  0  0  0  0
   15.0542   -3.1883   17.4099 C   0  0  0  0  0  0  0  0  0  0  0  0
   13.7963   -3.6582   17.0937 C   0  0  0  0  0  0  0  0  0  0  0  0
   12.8364   -3.8732   18.0897 C   0  0  0  0  0  0  0  0  0  0  0  0
   13.1083   -3.5692   19.4486 C   0  0  0  0  0  0  0  0  0  0  0  0
    6.9066   -3.6554   22.7413 C   0  0  0  0  0  0  0  0  0  0  0  0
    5.6346   -2.7353   21.8700 C   0  0  0  0  0  0  0  0  0  0  0  0
    5.1284   -1.6565   22.6216 N   0  0  0  0  0  0  0  0  0  0  0  0
    5.2199   -1.6059   23.9756 C   0  0  0  0  0  0  0  0  0  0  0  0
    4.5623   -0.7374   24.9831 C   0  0  0  0  0  0  0  0  0  0  0  0
    4.0922   -1.1988   26.1869 C   0  0  0  0  0  0  0  0  0  0  0  0
    3.8389   -2.5090   26.1093 C   0  0  0  0  0  0  0  0  0  0  0  0
    2.8708   -3.0267   26.8882 F   0  0  0  0  0  0  0  0  0  0  0  0
    4.3691   -3.1737   24.9565 C   0  0  0  0  0  0  0  0  0  0  0  0
    5.8478   -2.8060   24.2433 C   0  0  0  0  0  0  0  0  0  0  0  0
   11.1705   -4.4826   21.2263 H   0  0  0  0  0  0  0  0  0  0  0  0
   11.2184   -3.2650   22.4679 H   0  0  0  0  0  0  0  0  0  0  0  0
   13.2837   -3.4378   22.6948 H   0  0  0  0  0  0  0  0  0  0  0  0
   16.3822   -2.6547   19.0237 H   0  0  0  0  0  0  0  0  0  0  0  0
   15.7949   -3.0251   16.6323 H   0  0  0  0  0  0  0  0  0  0  0  0
   13.5390   -3.8691   16.0605 H   0  0  0  0  0  0  0  0  0  0  0  0
   11.9004   -4.2906   17.7462 H   0  0  0  0  0  0  0  0  0  0  0  0
    5.6143   -2.8161   20.8008 H   0  0  0  0  0  0  0  0  0  0  0  0
    4.7086   -0.8339   22.2223 H   0  0  0  0  0  0  0  0  0  0  0  0
    4.2294    0.2497   24.7142 H   0  0  0  0  0  0  0  0  0  0  0  0
    3.6009   -0.5675   26.9118 H   0  0  0  0  0  0  0  0  0  0  0  0
    3.5386   -3.2711   24.2437 H   0  0  0  0  0  0  0  0  0  0  0  0
  1  2  2  0
  2  3  1  0
  3  4  1  0
  4  5  1  0
  5  6  2  0
  6  7  1  0
  7  8  2  0
  8  9  1  0
  9 10  2  0
 10 11  1  0
 11 12  2  0
  2 13  1  0
 13 14  2  0
 14 15  1  0
 15 16  1  0
 16 17  2  0
 17 18  1  0
 18 19  2  0
 19 20  1  0
 19 21  1  0
 21 22  2  0
 12  4  1  0
 22 13  1  0
 12  7  1  0
 22 16  1  0
  3 23  1  0
  3 24  1  0
  5 25  1  0
  8 26  1  0
  9 27  1  0
 10 28  1  0
 11 29  1  0
 14 30  1  0
 15 31  1  0
 17 32  1  0
 18 33  1  0
 21 34  1  0
M  END
>  <Energy>  (738) 
850.62002327049936

>  <compound_id>  (738) 
8508

>  <target_id>  (738) 
1

>  <reference_id>  (738) 
103

>  <inspiration_ids>  (738) 
[40, 103]

>  <energy_score>  (738) 
786.5950626538594

>  <distance_score>  (738) 
6.47859727973624

>  <path>  (738) 
/opt/xchem-fragalysis-2/maxwin/BulkDock/SCRATCH/511017/C8508-P103/C8508-P103.minimised.mol

>  <scratch_subdir>  (738) 
/opt/xchem-fragalysis-2/maxwin/BulkDock/SCRATCH/511017/C8508-P103

>  <fragmenstein_runtime>  (738) 
4.93087363243103

>  <fragmenstein_outcome>  (738) 
too moved

>  <fragmenstein_mode>  (738) 
expansion

>  <fragmenstein_error>  (738) 


$$$$
C6861-P40
     RDKit          3D

 49 53  0  0  0  0  0  0  0  0999 V2000
   12.5480   -3.5625   26.4550 O   0  0  0  0  0  0  0  0  0  0  0  0
   11.9402   -4.5567   26.1479 C   0  0  0  0  0  0  0  0  0  0  0  0
   12.4132   -5.3684   24.9119 C   0  0  0  0  0  0  0  0  0  0  0  0
   12.7269   -4.6128   23.6880 N   0  0  0  0  0  0  0  0  0  0  0  0
   12.1786   -3.4192   23.3227 C   0  0  0  0  0  0  0  0  0  0  0  0
   12.4444   -3.1164   22.0730 N   0  0  0  0  0  0  0  0  0  0  0  0
   13.2741   -4.0847   21.6182 C   0  0  0  0  0  0  0  0  0  0  0  0
   13.8717   -4.2011   20.3559 C   0  0  0  0  0  0  0  0  0  0  0  0
   14.7381   -5.2672   20.1334 C   0  0  0  0  0  0  0  0  0  0  0  0
   14.9794   -6.2027   21.1416 C   0  0  0  0  0  0  0  0  0  0  0  0
   14.3516   -6.1221   22.3958 C   0  0  0  0  0  0  0  0  0  0  0  0
   13.4998   -5.0357   22.6144 C   0  0  0  0  0  0  0  0  0  0  0  0
   10.8330   -5.2300   26.8128 N   0  0  0  0  0  0  0  0  0  0  0  0
   10.1731   -4.9597   28.1509 C   0  0  0  0  0  0  0  0  0  0  0  0
    9.0917   -5.9437   28.6448 C   0  0  0  0  0  0  0  0  0  0  0  0
    7.8361   -5.9315   27.7733 C   0  0  0  0  0  0  0  0  0  0  0  0
    6.7237   -4.9881   28.2247 C   0  0  0  0  0  0  0  0  0  0  0  0
    6.8706   -3.6793   28.6437 C   0  0  0  0  0  0  0  0  0  0  0  0
    5.6402   -3.1633   28.9518 N   0  0  0  0  0  0  0  0  0  0  0  0
    4.6612   -4.1039   28.7533 C   0  0  0  0  0  0  0  0  0  0  0  0
    3.2749   -4.0025   28.9415 C   0  0  0  0  0  0  0  0  0  0  0  0
    2.4914   -5.1059   28.6087 C   0  0  0  0  0  0  0  0  0  0  0  0
    3.0831   -6.2589   28.1045 C   0  0  0  0  0  0  0  0  0  0  0  0
    4.4757   -6.3522   27.9450 C   0  0  0  0  0  0  0  0  0  0  0  0
    5.2968   -5.2531   28.2762 C   0  0  0  0  0  0  0  0  0  0  0  0
    8.3112   -5.6707   26.3517 C   0  0  0  0  0  0  0  0  0  0  0  0
    9.5050   -4.6911   26.2987 C   0  0  0  0  0  0  0  0  0  0  0  0
   11.6691   -6.1195   24.6311 H   0  0  0  0  0  0  0  0  0  0  0  0
   13.3321   -5.8888   25.2049 H   0  0  0  0  0  0  0  0  0  0  0  0
   11.5710   -2.8180   23.9871 H   0  0  0  0  0  0  0  0  0  0  0  0
   13.6628   -3.4740   19.5811 H   0  0  0  0  0  0  0  0  0  0  0  0
   15.2120   -5.3824   19.1620 H   0  0  0  0  0  0  0  0  0  0  0  0
   15.6548   -7.0313   20.9355 H   0  0  0  0  0  0  0  0  0  0  0  0
   14.5456   -6.8647   23.1612 H   0  0  0  0  0  0  0  0  0  0  0  0
   11.0201   -5.1269   28.8357 H   0  0  0  0  0  0  0  0  0  0  0  0
    9.9659   -3.8969   28.3586 H   0  0  0  0  0  0  0  0  0  0  0  0
    9.5247   -6.9528   28.6142 H   0  0  0  0  0  0  0  0  0  0  0  0
    8.8500   -5.7386   29.6943 H   0  0  0  0  0  0  0  0  0  0  0  0
    7.3992   -6.9390   27.8108 H   0  0  0  0  0  0  0  0  0  0  0  0
    7.7478   -3.0550   28.7431 H   0  0  0  0  0  0  0  0  0  0  0  0
    5.4711   -2.2176   29.2662 H   0  0  0  0  0  0  0  0  0  0  0  0
    2.8211   -3.0866   29.3084 H   0  0  0  0  0  0  0  0  0  0  0  0
    1.4122   -5.0437   28.7212 H   0  0  0  0  0  0  0  0  0  0  0  0
    2.4637   -7.0935   27.8018 H   0  0  0  0  0  0  0  0  0  0  0  0
    4.9211   -7.2534   27.5340 H   0  0  0  0  0  0  0  0  0  0  0  0
    7.4823   -5.3005   25.7398 H   0  0  0  0  0  0  0  0  0  0  0  0
    8.6349   -6.6221   25.9086 H   0  0  0  0  0  0  0  0  0  0  0  0
    9.2647   -3.6539   26.5888 H   0  0  0  0  0  0  0  0  0  0  0  0
    9.7115   -4.5573   25.2344 H   0  0  0  0  0  0  0  0  0  0  0  0
  1  2  2  0
  2  3  1  0
  3  4  1  0
  4  5  1  0
  5  6  2  0
  6  7  1  0
  7  8  2  0
  8  9  1  0
  9 10  2  0
 10 11  1  0
 11 12  2  0
  2 13  1  0
 13 14  1  0
 14 15  1  0
 15 16  1  0
 16 17  1  0
 17 18  2  0
 18 19  1  0
 19 20  1  0
 20 21  2  0
 21 22  1  0
 22 23  2  0
 23 24  1  0
 24 25  2  0
 16 26  1  0
 26 27  1  0
 12  4  1  0
 27 13  1  0
 12  7  1  0
 25 17  1  0
 25 20  1  0
  3 28  1  0
  3 29  1  0
  5 30  1  0
  8 31  1  0
  9 32  1  0
 10 33  1  0
 11 34  1  0
 14 35  1  0
 14 36  1  0
 15 37  1  0
 15 38  1  0
 16 39  1  0
 18 40  1  0
 19 41  1  0
 21 42  1  0
 22 43  1  0
 23 44  1  0
 24 45  1  0
 26 46  1  0
 26 47  1  0
 27 48  1  0
 27 49  1  0
M  END
>  <Energy>  (739) 
101.18761632260816

>  <compound_id>  (739) 
6861

>  <target_id>  (739) 
1

>  <reference_id>  (739) 
40

>  <inspiration_ids>  (739) 
[40, 103]

>  <energy_score>  (739) 
35.24575820238192

>  <distance_score>  (739) 
6.360788685861337

>  <path>  (739) 
/opt/xchem-fragalysis-2/maxwin/BulkDock/SCRATCH/511017/C6861-P40/C6861-P40.minimised.mol

>  <scratch_subdir>  (739) 
/opt/xchem-fragalysis-2/maxwin/BulkDock/SCRATCH/511017/C6861-P40

>  <fragmenstein_runtime>  (739) 
8.955131530761719

>  <fragmenstein_outcome>  (739) 
too moved

>  <fragmenstein_mode>  (739) 
expansion

>  <fragmenstein_error>  (739) 


$$$$
C6861-P103
     RDKit          3D

 49 53  0  0  0  0  0  0  0  0999 V2000
   10.5497   -2.0768   25.9380 O   0  0  0  0  0  0  0  0  0  0  0  0
   10.3290   -1.0406   26.5045 C   0  0  0  0  0  0  0  0  0  0  0  0
   10.9758    0.2657   25.9723 C   0  0  0  0  0  0  0  0  0  0  0  0
   11.9585    0.1178   24.8771 N   0  0  0  0  0  0  0  0  0  0  0  0
   13.0092   -0.7662   24.8725 C   0  0  0  0  0  0  0  0  0  0  0  0
   13.8696   -0.5268   23.9086 N   0  0  0  0  0  0  0  0  0  0  0  0
   13.3462    0.5312   23.2179 C   0  0  0  0  0  0  0  0  0  0  0  0
   13.8665    1.1857   22.0889 C   0  0  0  0  0  0  0  0  0  0  0  0
   13.1895    2.2964   21.5858 C   0  0  0  0  0  0  0  0  0  0  0  0
   11.9970    2.7184   22.1739 C   0  0  0  0  0  0  0  0  0  0  0  0
   11.4417    2.0560   23.2793 C   0  0  0  0  0  0  0  0  0  0  0  0
   12.1487    0.9649   23.7959 C   0  0  0  0  0  0  0  0  0  0  0  0
    9.5795   -0.7721   27.7244 N   0  0  0  0  0  0  0  0  0  0  0  0
    8.9366   -1.7311   28.7296 C   0  0  0  0  0  0  0  0  0  0  0  0
    7.5835   -2.5028   28.6733 C   0  0  0  0  0  0  0  0  0  0  0  0
    6.4754   -1.4950   28.9836 C   0  0  0  0  0  0  0  0  0  0  0  0
    5.0803   -1.9059   28.5267 C   0  0  0  0  0  0  0  0  0  0  0  0
    4.4889   -1.6319   27.3049 C   0  0  0  0  0  0  0  0  0  0  0  0
    3.2152   -2.1402   27.2850 N   0  0  0  0  0  0  0  0  0  0  0  0
    2.9314   -2.7374   28.4913 C   0  0  0  0  0  0  0  0  0  0  0  0
    1.7590   -3.3762   28.9211 C   0  0  0  0  0  0  0  0  0  0  0  0
    1.7636   -3.9672   30.1867 C   0  0  0  0  0  0  0  0  0  0  0  0
    2.8950   -3.9089   30.9939 C   0  0  0  0  0  0  0  0  0  0  0  0
    4.0523   -3.2461   30.5568 C   0  0  0  0  0  0  0  0  0  0  0  0
    4.0848   -2.6435   29.2781 C   0  0  0  0  0  0  0  0  0  0  0  0
    7.0055   -0.1698   28.4180 C   0  0  0  0  0  0  0  0  0  0  0  0
    8.1232   -0.4863   27.3882 C   0  0  0  0  0  0  0  0  0  0  0  0
   11.5203    0.7534   26.7888 H   0  0  0  0  0  0  0  0  0  0  0  0
   10.1913    0.9355   25.6137 H   0  0  0  0  0  0  0  0  0  0  0  0
   13.1066   -1.5551   25.6071 H   0  0  0  0  0  0  0  0  0  0  0  0
   14.7919    0.8370   21.6459 H   0  0  0  0  0  0  0  0  0  0  0  0
   13.5883    2.8283   20.7255 H   0  0  0  0  0  0  0  0  0  0  0  0
   11.4897    3.5903   21.7654 H   0  0  0  0  0  0  0  0  0  0  0  0
   10.5163    2.4026   23.7239 H   0  0  0  0  0  0  0  0  0  0  0  0
    9.6932   -2.5291   28.7769 H   0  0  0  0  0  0  0  0  0  0  0  0
    9.0289   -1.2281   29.7058 H   0  0  0  0  0  0  0  0  0  0  0  0
    7.4629   -3.0012   27.7080 H   0  0  0  0  0  0  0  0  0  0  0  0
    7.5760   -3.2929   29.4343 H   0  0  0  0  0  0  0  0  0  0  0  0
    6.4153   -1.3676   30.0740 H   0  0  0  0  0  0  0  0  0  0  0  0
    4.8705   -1.1394   26.4207 H   0  0  0  0  0  0  0  0  0  0  0  0
    2.5902   -2.1129   26.4847 H   0  0  0  0  0  0  0  0  0  0  0  0
    0.8812   -3.4246   28.2845 H   0  0  0  0  0  0  0  0  0  0  0  0
    0.8758   -4.4840   30.5440 H   0  0  0  0  0  0  0  0  0  0  0  0
    2.8781   -4.3755   31.9765 H   0  0  0  0  0  0  0  0  0  0  0  0
    4.9234   -3.1990   31.2028 H   0  0  0  0  0  0  0  0  0  0  0  0
    7.4163    0.4566   29.2205 H   0  0  0  0  0  0  0  0  0  0  0  0
    6.2108    0.4158   27.9425 H   0  0  0  0  0  0  0  0  0  0  0  0
    7.7832   -1.1808   26.6038 H   0  0  0  0  0  0  0  0  0  0  0  0
    8.2214    0.4689   26.8540 H   0  0  0  0  0  0  0  0  0  0  0  0
  1  2  2  0
  2  3  1  0
  3  4  1  0
  4  5  1  0
  5  6  2  0
  6  7  1  0
  7  8  2  0
  8  9  1  0
  9 10  2  0
 10 11  1  0
 11 12  2  0
  2 13  1  0
 13 14  1  0
 14 15  1  0
 15 16  1  0
 16 17  1  0
 17 18  2  0
 18 19  1  0
 19 20  1  0
 20 21  2  0
 21 22  1  0
 22 23  2  0
 23 24  1  0
 24 25  2  0
 16 26  1  0
 26 27  1  0
 12  4  1  0
 27 13  1  0
 12  7  1  0
 25 17  1  0
 25 20  1  0
  3 28  1  0
  3 29  1  0
  5 30  1  0
  8 31  1  0
  9 32  1  0
 10 33  1  0
 11 34  1  0
 14 35  1  0
 14 36  1  0
 15 37  1  0
 15 38  1  0
 16 39  1  0
 18 40  1  0
 19 41  1  0
 21 42  1  0
 22 43  1  0
 23 44  1  0
 24 45  1  0
 26 46  1  0
 26 47  1  0
 27 48  1  0
 27 49  1  0
M  END
>  <Energy>  (740) 
120.7961661069286

>  <compound_id>  (740) 
6861

>  <target_id>  (740) 
1

>  <reference_id>  (740) 
103

>  <inspiration_ids>  (740) 
[40, 103]

>  <energy_score>  (740) 
54.85430798669779

>  <distance_score>  (740) 
6.704085993545173

>  <path>  (740) 
/opt/xchem-fragalysis-2/maxwin/BulkDock/SCRATCH/511017/C6861-P103/C6861-P103.minimised.mol

>  <scratch_subdir>  (740) 
/opt/xchem-fragalysis-2/maxwin/BulkDock/SCRATCH/511017/C6861-P103

>  <fragmenstein_runtime>  (740) 
9.553603410720825

>  <fragmenstein_outcome>  (740) 
too moved

>  <fragmenstein_mode>  (740) 
expansion

>  <fragmenstein_error>  (740) 


$$$$
C8510-P40
     RDKit          3D

 40 43  0  0  0  0  0  0  0  0999 V2000
    9.7294   -6.6034   25.7030 O   0  0  0  0  0  0  0  0  0  0  0  0
    9.3973   -5.5132   26.6051 S   0  0  0  0  0  0  0  0  0  0  0  0
    9.8251   -5.5351   27.9829 O   0  0  0  0  0  0  0  0  0  0  0  0
   10.0128   -4.0980   25.8579 N   0  0  0  0  0  0  0  0  0  0  0  0
   11.4419   -4.1376   25.3021 C   0  0  0  0  0  0  0  0  0  0  0  0
   11.6931   -3.0044   24.2630 C   0  0  0  0  0  0  0  0  0  0  0  0
   12.9830   -2.8292   23.6001 N   0  0  0  0  0  0  0  0  0  0  0  0
   13.8389   -1.7938   23.9074 C   0  0  0  0  0  0  0  0  0  0  0  0
   14.6775   -1.5202   22.9338 N   0  0  0  0  0  0  0  0  0  0  0  0
   14.3634   -2.3991   21.9338 C   0  0  0  0  0  0  0  0  0  0  0  0
   14.9166   -2.4958   20.6442 C   0  0  0  0  0  0  0  0  0  0  0  0
   14.4466   -3.4816   19.7782 C   0  0  0  0  0  0  0  0  0  0  0  0
   13.4477   -4.3538   20.1983 C   0  0  0  0  0  0  0  0  0  0  0  0
   12.8650   -4.2635   21.4737 C   0  0  0  0  0  0  0  0  0  0  0  0
   13.3413   -3.2666   22.3312 C   0  0  0  0  0  0  0  0  0  0  0  0
    7.6302   -5.5666   26.6478 C   0  0  0  0  0  0  0  0  0  0  0  0
    6.8577   -6.2873   25.7484 C   0  0  0  0  0  0  0  0  0  0  0  0
    5.5364   -6.1300   26.0604 N   0  0  0  0  0  0  0  0  0  0  0  0
    5.4106   -5.3981   27.2171 C   0  0  0  0  0  0  0  0  0  0  0  0
    4.2493   -5.0518   27.9316 C   0  0  0  0  0  0  0  0  0  0  0  0
    4.3936   -4.3000   29.0980 C   0  0  0  0  0  0  0  0  0  0  0  0
    5.6574   -3.9029   29.5209 C   0  0  0  0  0  0  0  0  0  0  0  0
    6.8024   -4.2460   28.7856 C   0  0  0  0  0  0  0  0  0  0  0  0
    7.9907   -3.8086   29.2222 F   0  0  0  0  0  0  0  0  0  0  0  0
    6.7089   -5.0164   27.6098 C   0  0  0  0  0  0  0  0  0  0  0  0
    9.2922   -3.7163   25.2384 H   0  0  0  0  0  0  0  0  0  0  0  0
   12.1353   -4.0358   26.1433 H   0  0  0  0  0  0  0  0  0  0  0  0
   11.6267   -5.1020   24.8204 H   0  0  0  0  0  0  0  0  0  0  0  0
   11.4436   -2.0467   24.7379 H   0  0  0  0  0  0  0  0  0  0  0  0
   10.9878   -3.1347   23.4506 H   0  0  0  0  0  0  0  0  0  0  0  0
   13.7649   -1.2437   24.8366 H   0  0  0  0  0  0  0  0  0  0  0  0
   15.7048   -1.8144   20.3452 H   0  0  0  0  0  0  0  0  0  0  0  0
   14.8677   -3.5824   18.7815 H   0  0  0  0  0  0  0  0  0  0  0  0
   13.1025   -5.1134   19.5049 H   0  0  0  0  0  0  0  0  0  0  0  0
   12.0687   -4.9380   21.7593 H   0  0  0  0  0  0  0  0  0  0  0  0
    7.1334   -6.9087   24.9076 H   0  0  0  0  0  0  0  0  0  0  0  0
    4.7752   -6.5381   25.5323 H   0  0  0  0  0  0  0  0  0  0  0  0
    3.2668   -5.3552   27.5865 H   0  0  0  0  0  0  0  0  0  0  0  0
    3.5172   -4.0071   29.6708 H   0  0  0  0  0  0  0  0  0  0  0  0
    5.7766   -3.3045   30.4199 H   0  0  0  0  0  0  0  0  0  0  0  0
  1  2  2  0
  2  3  2  0
  2  4  1  0
  4  5  1  0
  5  6  1  0
  6  7  1  0
  7  8  1  0
  8  9  2  0
  9 10  1  0
 10 11  2  0
 11 12  1  0
 12 13  2  0
 13 14  1  0
 14 15  2  0
  2 16  1  0
 16 17  2  0
 17 18  1  0
 18 19  1  0
 19 20  2  0
 20 21  1  0
 21 22  2  0
 22 23  1  0
 23 24  1  0
 23 25  2  0
 15  7  1  0
 25 16  1  0
 15 10  1  0
 25 19  1  0
  4 26  1  0
  5 27  1  0
  5 28  1  0
  6 29  1  0
  6 30  1  0
  8 31  1  0
 11 32  1  0
 12 33  1  0
 13 34  1  0
 14 35  1  0
 17 36  1  0
 18 37  1  0
 20 38  1  0
 21 39  1  0
 22 40  1  0
M  END
>  <Energy>  (741) 
7.278309478082897

>  <compound_id>  (741) 
8510

>  <target_id>  (741) 
1

>  <reference_id>  (741) 
40

>  <inspiration_ids>  (741) 
[40, 103]

>  <energy_score>  (741) 
-16.83744637980186

>  <distance_score>  (741) 
6.394363754101645

>  <path>  (741) 
/opt/xchem-fragalysis-2/maxwin/BulkDock/SCRATCH/511017/C8510-P40/C8510-P40.minimised.mol

>  <scratch_subdir>  (741) 
/opt/xchem-fragalysis-2/maxwin/BulkDock/SCRATCH/511017/C8510-P40

>  <fragmenstein_runtime>  (741) 
6.761866569519043

>  <fragmenstein_outcome>  (741) 
too moved

>  <fragmenstein_mode>  (741) 
expansion

>  <fragmenstein_error>  (741) 


$$$$
C8510-P103
     RDKit          3D

 40 43  0  0  0  0  0  0  0  0999 V2000
   10.6316   -5.8060   26.3071 O   0  0  0  0  0  0  0  0  0  0  0  0
   10.9316   -4.5422   26.9479 S   0  0  0  0  0  0  0  0  0  0  0  0
   11.8378   -4.4298   28.0666 O   0  0  0  0  0  0  0  0  0  0  0  0
   11.4885   -3.4895   25.7055 N   0  0  0  0  0  0  0  0  0  0  0  0
   12.8736   -3.6684   25.1118 C   0  0  0  0  0  0  0  0  0  0  0  0
   12.8692   -3.7719   23.5468 C   0  0  0  0  0  0  0  0  0  0  0  0
   13.8632   -3.1095   22.7056 N   0  0  0  0  0  0  0  0  0  0  0  0
   14.5930   -1.9896   23.0045 C   0  0  0  0  0  0  0  0  0  0  0  0
   15.2054   -1.4899   21.9516 N   0  0  0  0  0  0  0  0  0  0  0  0
   14.8269   -2.2817   20.9002 C   0  0  0  0  0  0  0  0  0  0  0  0
   15.1247   -2.1483   19.5317 C   0  0  0  0  0  0  0  0  0  0  0  0
   14.5846   -3.0634   18.6235 C   0  0  0  0  0  0  0  0  0  0  0  0
   13.7722   -4.0994   19.0762 C   0  0  0  0  0  0  0  0  0  0  0  0
   13.4780   -4.2616   20.4398 C   0  0  0  0  0  0  0  0  0  0  0  0
   14.0156   -3.3286   21.3370 C   0  0  0  0  0  0  0  0  0  0  0  0
    9.3900   -3.9610   27.5584 C   0  0  0  0  0  0  0  0  0  0  0  0
    8.8372   -2.7331   27.2396 C   0  0  0  0  0  0  0  0  0  0  0  0
    7.6399   -2.6132   27.8939 N   0  0  0  0  0  0  0  0  0  0  0  0
    7.4095   -3.7196   28.6807 C   0  0  0  0  0  0  0  0  0  0  0  0
    6.3257   -3.9926   29.5332 C   0  0  0  0  0  0  0  0  0  0  0  0
    6.2994   -5.2229   30.1906 C   0  0  0  0  0  0  0  0  0  0  0  0
    7.3177   -6.1478   29.9820 C   0  0  0  0  0  0  0  0  0  0  0  0
    8.3927   -5.8507   29.1265 C   0  0  0  0  0  0  0  0  0  0  0  0
    9.3509   -6.7730   28.9609 F   0  0  0  0  0  0  0  0  0  0  0  0
    8.4703   -4.6122   28.4590 C   0  0  0  0  0  0  0  0  0  0  0  0
   10.7354   -3.5029   25.0118 H   0  0  0  0  0  0  0  0  0  0  0  0
   13.4653   -2.8141   25.4521 H   0  0  0  0  0  0  0  0  0  0  0  0
   13.3383   -4.5685   25.5289 H   0  0  0  0  0  0  0  0  0  0  0  0
   11.9153   -3.4060   23.1775 H   0  0  0  0  0  0  0  0  0  0  0  0
   12.9198   -4.8378   23.2915 H   0  0  0  0  0  0  0  0  0  0  0  0
   14.6296   -1.5546   23.9938 H   0  0  0  0  0  0  0  0  0  0  0  0
   15.7536   -1.3303   19.1980 H   0  0  0  0  0  0  0  0  0  0  0  0
   14.7942   -2.9562   17.5624 H   0  0  0  0  0  0  0  0  0  0  0  0
   13.3277   -4.7754   18.3523 H   0  0  0  0  0  0  0  0  0  0  0  0
   12.8111   -5.0493   20.7686 H   0  0  0  0  0  0  0  0  0  0  0  0
    9.1873   -1.9431   26.5895 H   0  0  0  0  0  0  0  0  0  0  0  0
    6.9857   -1.8500   27.7790 H   0  0  0  0  0  0  0  0  0  0  0  0
    5.5276   -3.2681   29.6727 H   0  0  0  0  0  0  0  0  0  0  0  0
    5.4840   -5.4430   30.8748 H   0  0  0  0  0  0  0  0  0  0  0  0
    7.3162   -7.1003   30.5025 H   0  0  0  0  0  0  0  0  0  0  0  0
  1  2  2  0
  2  3  2  0
  2  4  1  0
  4  5  1  0
  5  6  1  0
  6  7  1  0
  7  8  1  0
  8  9  2  0
  9 10  1  0
 10 11  2  0
 11 12  1  0
 12 13  2  0
 13 14  1  0
 14 15  2  0
  2 16  1  0
 16 17  2  0
 17 18  1  0
 18 19  1  0
 19 20  2  0
 20 21  1  0
 21 22  2  0
 22 23  1  0
 23 24  1  0
 23 25  2  0
 15  7  1  0
 25 16  1  0
 15 10  1  0
 25 19  1  0
  4 26  1  0
  5 27  1  0
  5 28  1  0
  6 29  1  0
  6 30  1  0
  8 31  1  0
 11 32  1  0
 12 33  1  0
 13 34  1  0
 14 35  1  0
 17 36  1  0
 18 37  1  0
 20 38  1  0
 21 39  1  0
 22 40  1  0
M  END
>  <Energy>  (742) 
5.8571567675185303

>  <compound_id>  (742) 
8510

>  <target_id>  (742) 
1

>  <reference_id>  (742) 
103

>  <inspiration_ids>  (742) 
[40, 103]

>  <energy_score>  (742) 
-18.258599090364214

>  <distance_score>  (742) 
6.769736987454224

>  <path>  (742) 
/opt/xchem-fragalysis-2/maxwin/BulkDock/SCRATCH/511017/C8510-P103/C8510-P103.minimised.mol

>  <scratch_subdir>  (742) 
/opt/xchem-fragalysis-2/maxwin/BulkDock/SCRATCH/511017/C8510-P103

>  <fragmenstein_runtime>  (742) 
9.969266653060913

>  <fragmenstein_outcome>  (742) 
too moved

>  <fragmenstein_mode>  (742) 
expansion

>  <fragmenstein_error>  (742) 


$$$$
C8511-P40
     RDKit          3D

 37 40  0  0  0  0  0  0  0  0999 V2000
    9.5828   -5.1237   25.8091 O   0  0  0  0  0  0  0  0  0  0  0  0
    9.5996   -4.0226   26.2881 C   0  0  0  0  0  0  0  0  0  0  0  0
    8.6792   -3.3716   27.2046 N   0  0  0  0  0  0  0  0  0  0  0  0
    7.4376   -3.8003   27.7372 C   0  0  0  0  0  0  0  0  0  0  0  0
    6.8850   -3.0419   28.7922 C   0  0  0  0  0  0  0  0  0  0  0  0
    5.6481   -3.3402   29.3784 C   0  0  0  0  0  0  0  0  0  0  0  0
    4.8816   -4.4069   28.9139 C   0  0  0  0  0  0  0  0  0  0  0  0
    5.3709   -5.1701   27.8392 C   0  0  0  0  0  0  0  0  0  0  0  0
    4.8280   -6.2633   27.1060 C   0  0  0  0  0  0  0  0  0  0  0  0
    5.7285   -6.5858   26.1210 C   0  0  0  0  0  0  0  0  0  0  0  0
    6.8026   -5.7446   26.2463 N   0  0  0  0  0  0  0  0  0  0  0  0
    6.6270   -4.8613   27.2874 C   0  0  0  0  0  0  0  0  0  0  0  0
   10.7612   -3.0258   25.8553 C   0  0  0  0  0  0  0  0  0  0  0  0
   10.8157   -1.9868   26.4500 O   0  0  0  0  0  0  0  0  0  0  0  0
   11.5558   -3.5286   24.7550 N   0  0  0  0  0  0  0  0  0  0  0  0
   12.5351   -2.9349   24.0171 N   0  0  0  0  0  0  0  0  0  0  0  0
   13.2343   -1.8157   24.3784 C   0  0  0  0  0  0  0  0  0  0  0  0
   14.0895   -1.4427   23.4465 N   0  0  0  0  0  0  0  0  0  0  0  0
   13.9227   -2.3477   22.4274 C   0  0  0  0  0  0  0  0  0  0  0  0
   14.5593   -2.3801   21.1718 C   0  0  0  0  0  0  0  0  0  0  0  0
   14.2549   -3.4082   20.2786 C   0  0  0  0  0  0  0  0  0  0  0  0
   13.3439   -4.3952   20.6401 C   0  0  0  0  0  0  0  0  0  0  0  0
   12.6939   -4.3819   21.8861 C   0  0  0  0  0  0  0  0  0  0  0  0
   12.9831   -3.3312   22.7681 C   0  0  0  0  0  0  0  0  0  0  0  0
    9.0557   -2.4611   27.4633 H   0  0  0  0  0  0  0  0  0  0  0  0
    7.4384   -2.1881   29.1807 H   0  0  0  0  0  0  0  0  0  0  0  0
    5.2780   -2.7224   30.1930 H   0  0  0  0  0  0  0  0  0  0  0  0
    3.9144   -4.6207   29.3557 H   0  0  0  0  0  0  0  0  0  0  0  0
    3.8737   -6.7431   27.2641 H   0  0  0  0  0  0  0  0  0  0  0  0
    5.7014   -7.3318   25.3354 H   0  0  0  0  0  0  0  0  0  0  0  0
    7.6239   -5.7365   25.6571 H   0  0  0  0  0  0  0  0  0  0  0  0
   11.1753   -4.4130   24.4502 H   0  0  0  0  0  0  0  0  0  0  0  0
   13.0736   -1.3035   25.3168 H   0  0  0  0  0  0  0  0  0  0  0  0
   15.2803   -1.6113   20.9169 H   0  0  0  0  0  0  0  0  0  0  0  0
   14.7373   -3.4480   19.3053 H   0  0  0  0  0  0  0  0  0  0  0  0
   13.1229   -5.1858   19.9271 H   0  0  0  0  0  0  0  0  0  0  0  0
   11.9926   -5.1644   22.1300 H   0  0  0  0  0  0  0  0  0  0  0  0
  1  2  2  0
  2  3  1  0
  3  4  1  0
  4  5  2  0
  5  6  1  0
  6  7  2  0
  7  8  1  0
  8  9  1  0
  9 10  2  0
 10 11  1  0
 11 12  1  0
  2 13  1  0
 13 14  2  0
 13 15  1  0
 15 16  1  0
 16 17  1  0
 17 18  2  0
 18 19  1  0
 19 20  2  0
 20 21  1  0
 21 22  2  0
 22 23  1  0
 23 24  2  0
 12  4  1  0
 24 16  1  0
 12  8  2  0
 24 19  1  0
  3 25  1  0
  5 26  1  0
  6 27  1  0
  7 28  1  0
  9 29  1  0
 10 30  1  0
 11 31  1  0
 15 32  1  0
 17 33  1  0
 20 34  1  0
 21 35  1  0
 22 36  1  0
 23 37  1  0
M  END
>  <Energy>  (743) 
50.516076514953767

>  <compound_id>  (743) 
8511

>  <target_id>  (743) 
1

>  <reference_id>  (743) 
40

>  <inspiration_ids>  (743) 
[40, 103]

>  <energy_score>  (743) 
-31.182261377182954

>  <distance_score>  (743) 
6.651782258855883

>  <path>  (743) 
/opt/xchem-fragalysis-2/maxwin/BulkDock/SCRATCH/511017/C8511-P40/C8511-P40.minimised.mol

>  <scratch_subdir>  (743) 
/opt/xchem-fragalysis-2/maxwin/BulkDock/SCRATCH/511017/C8511-P40

>  <fragmenstein_runtime>  (743) 
16.064086437225342

>  <fragmenstein_outcome>  (743) 
too moved

>  <fragmenstein_mode>  (743) 
expansion

>  <fragmenstein_error>  (743) 


$$$$
C8511-P103
     RDKit          3D

 37 40  0  0  0  0  0  0  0  0999 V2000
    6.0746   -5.4233   23.7990 O   0  0  0  0  0  0  0  0  0  0  0  0
    6.3690   -4.2090   23.8631 C   0  0  0  0  0  0  0  0  0  0  0  0
    5.4078   -2.7529   24.4572 N   0  0  0  0  0  0  0  0  0  0  0  0
    4.0385   -2.6551   25.1286 C   0  0  0  0  0  0  0  0  0  0  0  0
    4.0828   -1.2081   25.3227 C   0  0  0  0  0  0  0  0  0  0  0  0
    4.6128   -0.4910   26.4577 C   0  0  0  0  0  0  0  0  0  0  0  0
    4.9215   -1.1358   27.6345 C   0  0  0  0  0  0  0  0  0  0  0  0
    4.1691   -2.2861   27.7196 C   0  0  0  0  0  0  0  0  0  0  0  0
    3.5325   -2.8756   28.8541 C   0  0  0  0  0  0  0  0  0  0  0  0
    2.3169   -3.2957   28.3793 C   0  0  0  0  0  0  0  0  0  0  0  0
    2.3309   -2.9998   27.0433 N   0  0  0  0  0  0  0  0  0  0  0  0
    3.6229   -2.8160   26.5236 C   0  0  0  0  0  0  0  0  0  0  0  0
    7.4740   -3.7118   23.6142 C   0  0  0  0  0  0  0  0  0  0  0  0
    7.9279   -3.3812   24.7127 O   0  0  0  0  0  0  0  0  0  0  0  0
    8.4385   -3.6621   21.8045 N   0  0  0  0  0  0  0  0  0  0  0  0
   10.5922   -3.2553   21.5355 N   0  0  0  0  0  0  0  0  0  0  0  0
   11.5564   -3.2190   23.0329 C   0  0  0  0  0  0  0  0  0  0  0  0
   12.8523   -3.2912   23.0175 N   0  0  0  0  0  0  0  0  0  0  0  0
   13.1514   -3.5646   21.7672 C   0  0  0  0  0  0  0  0  0  0  0  0
   14.4578   -3.4972   21.2373 C   0  0  0  0  0  0  0  0  0  0  0  0
   14.7274   -4.0163   19.9936 C   0  0  0  0  0  0  0  0  0  0  0  0
   13.7314   -4.7409   19.3991 C   0  0  0  0  0  0  0  0  0  0  0  0
   12.4724   -4.8978   20.0092 C   0  0  0  0  0  0  0  0  0  0  0  0
   12.0359   -4.0936   21.0851 C   0  0  0  0  0  0  0  0  0  0  0  0
    5.9648   -1.9338   24.4491 H   0  0  0  0  0  0  0  0  0  0  0  0
    4.3003   -0.6101   24.4466 H   0  0  0  0  0  0  0  0  0  0  0  0
    4.8714    0.5562   26.3450 H   0  0  0  0  0  0  0  0  0  0  0  0
    5.3366   -0.6191   28.4883 H   0  0  0  0  0  0  0  0  0  0  0  0
    3.7760   -2.7271   29.8972 H   0  0  0  0  0  0  0  0  0  0  0  0
    1.4146   -3.6187   28.8795 H   0  0  0  0  0  0  0  0  0  0  0  0
    1.5227   -2.8340   26.4792 H   0  0  0  0  0  0  0  0  0  0  0  0
    7.8749   -4.0622   21.0792 H   0  0  0  0  0  0  0  0  0  0  0  0
   11.0800   -2.8589   23.9349 H   0  0  0  0  0  0  0  0  0  0  0  0
   15.2377   -3.0315   21.8313 H   0  0  0  0  0  0  0  0  0  0  0  0
   15.7083   -3.9149   19.5435 H   0  0  0  0  0  0  0  0  0  0  0  0
   13.9035   -5.1556   18.4183 H   0  0  0  0  0  0  0  0  0  0  0  0
   11.7458   -5.4419   19.4730 H   0  0  0  0  0  0  0  0  0  0  0  0
  1  2  2  0
  2  3  1  0
  3  4  1  0
  4  5  2  0
  5  6  1  0
  6  7  2  0
  7  8  1  0
  8  9  1  0
  9 10  2  0
 10 11  1  0
 11 12  1  0
  2 13  1  0
 13 14  2  0
 13 15  1  0
 15 16  1  0
 16 17  1  0
 17 18  2  0
 18 19  1  0
 19 20  2  0
 20 21  1  0
 21 22  2  0
 22 23  1  0
 23 24  2  0
 12  4  1  0
 24 16  1  0
 12  8  2  0
 24 19  1  0
  3 25  1  0
  5 26  1  0
  6 27  1  0
  7 28  1  0
  9 29  1  0
 10 30  1  0
 11 31  1  0
 15 32  1  0
 17 33  1  0
 20 34  1  0
 21 35  1  0
 22 36  1  0
 23 37  1  0
M  END
>  <Energy>  (744) 
835.70199452628151

>  <compound_id>  (744) 
8511

>  <target_id>  (744) 
1

>  <reference_id>  (744) 
103

>  <inspiration_ids>  (744) 
[40, 103]

>  <energy_score>  (744) 
754.0036566341516

>  <distance_score>  (744) 
6.767520824310681

>  <path>  (744) 
/opt/xchem-fragalysis-2/maxwin/BulkDock/SCRATCH/511017/C8511-P103/C8511-P103.minimised.mol

>  <scratch_subdir>  (744) 
/opt/xchem-fragalysis-2/maxwin/BulkDock/SCRATCH/511017/C8511-P103

>  <fragmenstein_runtime>  (744) 
8.217411041259766

>  <fragmenstein_outcome>  (744) 
too moved

>  <fragmenstein_mode>  (744) 
expansion

>  <fragmenstein_error>  (744) 


$$$$
C8512-P40
     RDKit          3D

 35 38  0  0  0  0  0  0  0  0999 V2000
    3.8245   -5.1777   28.2235 Cl  0  0  0  0  0  0  0  0  0  0  0  0
    4.7631   -5.0590   26.7735 C   0  0  0  0  0  0  0  0  0  0  0  0
    4.9943   -3.8465   26.1673 C   0  0  0  0  0  0  0  0  0  0  0  0
    5.6783   -3.7845   24.9288 C   0  0  0  0  0  0  0  0  0  0  0  0
    6.1992   -4.9523   24.2048 C   0  0  0  0  0  0  0  0  0  0  0  0
    5.8716   -6.1720   24.8785 C   0  0  0  0  0  0  0  0  0  0  0  0
    6.1039   -7.2320   24.0179 C   0  0  0  0  0  0  0  0  0  0  0  0
    6.4173   -6.7085   22.8001 C   0  0  0  0  0  0  0  0  0  0  0  0
    6.8782   -5.2737   22.7493 N   0  0  0  0  0  0  0  0  0  0  0  0
    7.7694   -4.4446   21.1947 C   0  0  0  0  0  0  0  0  0  0  0  0
    9.8162   -5.0017   20.7700 C   0  0  0  0  0  0  0  0  0  0  0  0
   11.2737   -4.6184   21.4204 N   0  0  0  0  0  0  0  0  0  0  0  0
   11.7211   -3.4800   22.0197 C   0  0  0  0  0  0  0  0  0  0  0  0
   12.9281   -3.1764   21.5978 N   0  0  0  0  0  0  0  0  0  0  0  0
   13.4384   -4.4043   21.3321 C   0  0  0  0  0  0  0  0  0  0  0  0
   14.7710   -4.7729   21.1464 C   0  0  0  0  0  0  0  0  0  0  0  0
   15.0976   -6.1091   21.3716 C   0  0  0  0  0  0  0  0  0  0  0  0
   14.1185   -7.0269   21.7667 C   0  0  0  0  0  0  0  0  0  0  0  0
   12.7524   -6.6917   21.7937 C   0  0  0  0  0  0  0  0  0  0  0  0
   12.4394   -5.3729   21.4840 C   0  0  0  0  0  0  0  0  0  0  0  0
    5.2185   -6.2092   26.1492 C   0  0  0  0  0  0  0  0  0  0  0  0
    4.6356   -2.9229   26.6137 H   0  0  0  0  0  0  0  0  0  0  0  0
    5.7543   -2.7905   24.4884 H   0  0  0  0  0  0  0  0  0  0  0  0
    5.8449   -8.2690   24.1888 H   0  0  0  0  0  0  0  0  0  0  0  0
    6.4196   -7.2574   21.8705 H   0  0  0  0  0  0  0  0  0  0  0  0
    7.1464   -4.7125   20.2801 H   0  0  0  0  0  0  0  0  0  0  0  0
    7.4775   -3.3990   21.3938 H   0  0  0  0  0  0  0  0  0  0  0  0
    9.9482   -5.3135   19.7259 H   0  0  0  0  0  0  0  0  0  0  0  0
   10.1818   -6.0406   20.9836 H   0  0  0  0  0  0  0  0  0  0  0  0
   11.1627   -2.9525   22.7708 H   0  0  0  0  0  0  0  0  0  0  0  0
   15.5362   -4.0246   20.9811 H   0  0  0  0  0  0  0  0  0  0  0  0
   16.1357   -6.4241   21.3032 H   0  0  0  0  0  0  0  0  0  0  0  0
   14.4179   -8.0487   21.9937 H   0  0  0  0  0  0  0  0  0  0  0  0
   11.9979   -7.4253   22.0478 H   0  0  0  0  0  0  0  0  0  0  0  0
    4.9913   -7.1807   26.5794 H   0  0  0  0  0  0  0  0  0  0  0  0
  1  2  1  0
  2  3  2  0
  3  4  1  0
  4  5  2  0
  5  6  1  0
  6  7  1  0
  7  8  2  0
  8  9  1  0
  9 10  1  0
 10 11  1  0
 11 12  1  0
 12 13  1  0
 13 14  2  0
 14 15  1  0
 15 16  2  0
 16 17  1  0
 17 18  2  0
 18 19  1  0
 19 20  2  0
  6 21  2  0
 21  2  1  0
  9  5  1  0
 20 12  1  0
 20 15  1  0
  3 22  1  0
  4 23  1  0
  7 24  1  0
  8 25  1  0
 10 26  1  0
 10 27  1  0
 11 28  1  0
 11 29  1  0
 13 30  1  0
 16 31  1  0
 17 32  1  0
 18 33  1  0
 19 34  1  0
 21 35  1  0
M  END
>  <Energy>  (745) 
355.55761585069354

>  <compound_id>  (745) 
8512

>  <target_id>  (745) 
1

>  <reference_id>  (745) 
40

>  <inspiration_ids>  (745) 
[40, 103]

>  <energy_score>  (745) 
324.6003506886613

>  <distance_score>  (745) 
7.0164974644536855

>  <path>  (745) 
/opt/xchem-fragalysis-2/maxwin/BulkDock/SCRATCH/511017/C8512-P40/C8512-P40.minimised.mol

>  <scratch_subdir>  (745) 
/opt/xchem-fragalysis-2/maxwin/BulkDock/SCRATCH/511017/C8512-P40

>  <fragmenstein_runtime>  (745) 
7.323630332946777

>  <fragmenstein_outcome>  (745) 
too moved

>  <fragmenstein_mode>  (745) 
expansion

>  <fragmenstein_error>  (745) 


$$$$
C8512-P103
     RDKit          3D

 35 38  0  0  0  0  0  0  0  0999 V2000
    1.3078   -2.9191   28.2672 Cl  0  0  0  0  0  0  0  0  0  0  0  0
    2.1821   -3.5440   26.9189 C   0  0  0  0  0  0  0  0  0  0  0  0
    3.1913   -2.7834   26.2205 C   0  0  0  0  0  0  0  0  0  0  0  0
    4.1042   -3.2792   25.1347 C   0  0  0  0  0  0  0  0  0  0  0  0
    4.4639   -4.8473   24.8704 C   0  0  0  0  0  0  0  0  0  0  0  0
    2.9375   -5.7032   25.1975 C   0  0  0  0  0  0  0  0  0  0  0  0
    3.3339   -7.0610   24.3195 C   0  0  0  0  0  0  0  0  0  0  0  0
    4.6651   -7.3325   23.9282 C   0  0  0  0  0  0  0  0  0  0  0  0
    5.5246   -6.1134   23.9936 N   0  0  0  0  0  0  0  0  0  0  0  0
    7.0456   -6.5279   23.5610 C   0  0  0  0  0  0  0  0  0  0  0  0
    7.9882   -7.9327   24.5321 C   0  0  0  0  0  0  0  0  0  0  0  0
    9.4391   -7.7128   24.9969 N   0  0  0  0  0  0  0  0  0  0  0  0
    9.8397   -6.8144   25.9646 C   0  0  0  0  0  0  0  0  0  0  0  0
   11.0633   -6.3808   25.7658 N   0  0  0  0  0  0  0  0  0  0  0  0
   11.5742   -7.1517   24.7662 C   0  0  0  0  0  0  0  0  0  0  0  0
   12.8038   -7.0408   24.0930 C   0  0  0  0  0  0  0  0  0  0  0  0
   13.1146   -7.9584   23.0863 C   0  0  0  0  0  0  0  0  0  0  0  0
   12.2436   -9.0075   22.8048 C   0  0  0  0  0  0  0  0  0  0  0  0
   11.0137   -9.1381   23.4709 C   0  0  0  0  0  0  0  0  0  0  0  0
   10.6499   -8.1393   24.3984 C   0  0  0  0  0  0  0  0  0  0  0  0
    1.8514   -4.8919   26.4217 C   0  0  0  0  0  0  0  0  0  0  0  0
    3.2875   -1.7244   26.4662 H   0  0  0  0  0  0  0  0  0  0  0  0
    4.7765   -2.5325   24.6981 H   0  0  0  0  0  0  0  0  0  0  0  0
    2.5068   -7.7054   23.9862 H   0  0  0  0  0  0  0  0  0  0  0  0
    5.1221   -8.0134   24.6227 H   0  0  0  0  0  0  0  0  0  0  0  0
    6.9279   -6.7311   22.5168 H   0  0  0  0  0  0  0  0  0  0  0  0
    7.5838   -5.5857   23.4236 H   0  0  0  0  0  0  0  0  0  0  0  0
    7.9400   -8.9492   24.1180 H   0  0  0  0  0  0  0  0  0  0  0  0
    7.4429   -8.1639   25.4754 H   0  0  0  0  0  0  0  0  0  0  0  0
    9.1918   -6.4441   26.7490 H   0  0  0  0  0  0  0  0  0  0  0  0
   13.4919   -6.2443   24.3585 H   0  0  0  0  0  0  0  0  0  0  0  0
   14.0633   -7.8780   22.5603 H   0  0  0  0  0  0  0  0  0  0  0  0
   12.5265   -9.7480   22.0577 H   0  0  0  0  0  0  0  0  0  0  0  0
   10.3510   -9.9607   23.2143 H   0  0  0  0  0  0  0  0  0  0  0  0
    0.9606   -5.4381   26.7691 H   0  0  0  0  0  0  0  0  0  0  0  0
  1  2  1  0
  2  3  2  0
  3  4  1  0
  4  5  2  0
  5  6  1  0
  6  7  1  0
  7  8  2  0
  8  9  1  0
  9 10  1  0
 10 11  1  0
 11 12  1  0
 12 13  1  0
 13 14  2  0
 14 15  1  0
 15 16  2  0
 16 17  1  0
 17 18  2  0
 18 19  1  0
 19 20  2  0
  6 21  2  0
 21  2  1  0
  9  5  1  0
 20 12  1  0
 20 15  1  0
  3 22  1  0
  4 23  1  0
  7 24  1  0
  8 25  1  0
 10 26  1  0
 10 27  1  0
 11 28  1  0
 11 29  1  0
 13 30  1  0
 16 31  1  0
 17 32  1  0
 18 33  1  0
 19 34  1  0
 21 35  1  0
M  END
>  <Energy>  (746) 
395.03698004609771

>  <compound_id>  (746) 
8512

>  <target_id>  (746) 
1

>  <reference_id>  (746) 
103

>  <inspiration_ids>  (746) 
[40, 103]

>  <energy_score>  (746) 
364.07971488406645

>  <distance_score>  (746) 
9.028778151411135

>  <path>  (746) 
/opt/xchem-fragalysis-2/maxwin/BulkDock/SCRATCH/511017/C8512-P103/C8512-P103.minimised.mol

>  <scratch_subdir>  (746) 
/opt/xchem-fragalysis-2/maxwin/BulkDock/SCRATCH/511017/C8512-P103

>  <fragmenstein_runtime>  (746) 
8.116357326507568

>  <fragmenstein_outcome>  (746) 
too moved

>  <fragmenstein_mode>  (746) 
expansion

>  <fragmenstein_error>  (746) 


$$$$
C8481-P40
     RDKit          3D

 37 41  0  0  0  0  0  0  0  0999 V2000
   14.6476   -2.6430   22.8853 C   0  0  0  0  0  0  0  0  0  0  0  0
   13.5100   -3.0915   23.5489 C   0  0  0  0  0  0  0  0  0  0  0  0
   12.5155   -3.8289   22.8955 C   0  0  0  0  0  0  0  0  0  0  0  0
   12.6926   -4.1014   21.5368 C   0  0  0  0  0  0  0  0  0  0  0  0
   13.8388   -3.6479   20.8663 C   0  0  0  0  0  0  0  0  0  0  0  0
   14.8283   -2.9221   21.5368 C   0  0  0  0  0  0  0  0  0  0  0  0
   13.8137   -3.9389   19.5470 N   0  0  0  0  0  0  0  0  0  0  0  0
   12.6506   -4.5048   19.3654 C   0  0  0  0  0  0  0  0  0  0  0  0
   11.9108   -4.7143   20.5437 N   0  0  0  0  0  0  0  0  0  0  0  0
   10.1245   -5.0781   20.6560 C   0  0  0  0  0  0  0  0  0  0  0  0
    8.2751   -4.1921   20.5150 C   0  0  0  0  0  0  0  0  0  0  0  0
    7.0696   -4.8487   20.0758 N   0  0  0  0  0  0  0  0  0  0  0  0
    6.8624   -5.6970   21.8027 O   0  0  0  0  0  0  0  0  0  0  0  0
    6.8650   -4.5520   22.7648 C   0  0  0  0  0  0  0  0  0  0  0  0
    6.0998   -4.6927   24.3065 C   0  0  0  0  0  0  0  0  0  0  0  0
    5.5005   -3.5338   24.9777 C   0  0  0  0  0  0  0  0  0  0  0  0
    4.8036   -3.5382   26.1876 C   0  0  0  0  0  0  0  0  0  0  0  0
    4.6729   -4.7170   26.8818 C   0  0  0  0  0  0  0  0  0  0  0  0
    5.3111   -5.8358   26.3428 C   0  0  0  0  0  0  0  0  0  0  0  0
    5.4043   -7.0828   26.9177 N   0  0  0  0  0  0  0  0  0  0  0  0
    6.1738   -7.8920   26.1502 C   0  0  0  0  0  0  0  0  0  0  0  0
    6.5426   -7.1665   25.0468 C   0  0  0  0  0  0  0  0  0  0  0  0
    6.0131   -5.8613   25.1116 C   0  0  0  0  0  0  0  0  0  0  0  0
    7.3068   -3.4974   21.7177 N   0  0  0  0  0  0  0  0  0  0  0  0
   15.3947   -2.0640   23.4213 H   0  0  0  0  0  0  0  0  0  0  0  0
   13.3782   -2.8439   24.6007 H   0  0  0  0  0  0  0  0  0  0  0  0
   11.6367   -4.1204   23.4515 H   0  0  0  0  0  0  0  0  0  0  0  0
   15.7014   -2.5711   20.9993 H   0  0  0  0  0  0  0  0  0  0  0  0
   12.2398   -4.6287   18.3760 H   0  0  0  0  0  0  0  0  0  0  0  0
   10.4992   -4.7842   21.6143 H   0  0  0  0  0  0  0  0  0  0  0  0
   10.2453   -6.1409   20.6906 H   0  0  0  0  0  0  0  0  0  0  0  0
    5.5830   -2.5653   24.4833 H   0  0  0  0  0  0  0  0  0  0  0  0
    4.3857   -2.6148   26.5773 H   0  0  0  0  0  0  0  0  0  0  0  0
    4.1588   -4.7523   27.8353 H   0  0  0  0  0  0  0  0  0  0  0  0
    5.0149   -7.3316   27.8145 H   0  0  0  0  0  0  0  0  0  0  0  0
    6.4006   -8.9115   26.4310 H   0  0  0  0  0  0  0  0  0  0  0  0
    7.1604   -7.5578   24.2723 H   0  0  0  0  0  0  0  0  0  0  0  0
  1  2  2  0
  2  3  1  0
  3  4  2  0
  4  5  1  0
  5  6  2  0
  5  7  1  0
  7  8  2  0
  8  9  1  0
  9 10  1  0
 10 11  1  0
 11 12  2  0
 12 13  1  0
 13 14  1  0
 14 15  1  0
 15 16  2  0
 16 17  1  0
 17 18  2  0
 18 19  1  0
 19 20  1  0
 20 21  1  0
 21 22  2  0
 22 23  1  0
 14 24  2  0
  6  1  1  0
 24 11  1  0
  9  4  1  0
 23 15  1  0
 23 19  2  0
  1 25  1  0
  2 26  1  0
  3 27  1  0
  6 28  1  0
  8 29  1  0
 10 30  1  0
 10 31  1  0
 16 32  1  0
 17 33  1  0
 18 34  1  0
 20 35  1  0
 21 36  1  0
 22 37  1  0
M  END
>  <Energy>  (747) 
437.24291954311764

>  <compound_id>  (747) 
8481

>  <target_id>  (747) 
1

>  <reference_id>  (747) 
40

>  <inspiration_ids>  (747) 
[40, 103]

>  <energy_score>  (747) 
345.401338356419

>  <distance_score>  (747) 
6.9467272788676455

>  <path>  (747) 
/opt/xchem-fragalysis-2/maxwin/BulkDock/SCRATCH/511017/C8481-P40/C8481-P40.minimised.mol

>  <scratch_subdir>  (747) 
/opt/xchem-fragalysis-2/maxwin/BulkDock/SCRATCH/511017/C8481-P40

>  <fragmenstein_runtime>  (747) 
5.4986186027526855

>  <fragmenstein_outcome>  (747) 
too moved

>  <fragmenstein_mode>  (747) 
expansion

>  <fragmenstein_error>  (747) 


$$$$
C8481-P103
     RDKit          3D

 37 41  0  0  0  0  0  0  0  0999 V2000
   14.5546   -3.0821   17.0133 C   0  0  0  0  0  0  0  0  0  0  0  0
   13.3046   -3.4452   16.5352 C   0  0  0  0  0  0  0  0  0  0  0  0
   12.4289   -4.1990   17.3200 C   0  0  0  0  0  0  0  0  0  0  0  0
   12.8063   -4.5400   18.6388 C   0  0  0  0  0  0  0  0  0  0  0  0
   14.0717   -4.1965   19.1117 C   0  0  0  0  0  0  0  0  0  0  0  0
   14.9538   -3.4669   18.2955 C   0  0  0  0  0  0  0  0  0  0  0  0
   14.2723   -4.6655   20.3777 N   0  0  0  0  0  0  0  0  0  0  0  0
   13.1359   -5.2060   20.7456 C   0  0  0  0  0  0  0  0  0  0  0  0
   12.1622   -5.1578   19.7520 N   0  0  0  0  0  0  0  0  0  0  0  0
   10.3933   -5.4849   20.1251 C   0  0  0  0  0  0  0  0  0  0  0  0
    8.6193   -4.5462   20.2831 C   0  0  0  0  0  0  0  0  0  0  0  0
    7.4408   -5.1344   20.1548 N   0  0  0  0  0  0  0  0  0  0  0  0
    7.5016   -5.5395   22.0845 O   0  0  0  0  0  0  0  0  0  0  0  0
    7.3977   -4.1606   22.6595 C   0  0  0  0  0  0  0  0  0  0  0  0
    6.7226   -3.5142   24.2791 C   0  0  0  0  0  0  0  0  0  0  0  0
    5.4234   -2.4301   24.3487 C   0  0  0  0  0  0  0  0  0  0  0  0
    4.8384   -1.6740   25.3947 C   0  0  0  0  0  0  0  0  0  0  0  0
    5.5743   -1.4525   26.5400 C   0  0  0  0  0  0  0  0  0  0  0  0
    6.9234   -1.9007   26.5968 C   0  0  0  0  0  0  0  0  0  0  0  0
    7.7729   -1.5903   27.6346 N   0  0  0  0  0  0  0  0  0  0  0  0
    8.9000   -2.3241   27.5731 C   0  0  0  0  0  0  0  0  0  0  0  0
    8.8153   -3.0945   26.4424 C   0  0  0  0  0  0  0  0  0  0  0  0
    7.5960   -2.8041   25.6507 C   0  0  0  0  0  0  0  0  0  0  0  0
    8.0310   -3.6087   21.4289 N   0  0  0  0  0  0  0  0  0  0  0  0
   15.2319   -2.5053   16.3886 H   0  0  0  0  0  0  0  0  0  0  0  0
   12.9995   -3.1432   15.5356 H   0  0  0  0  0  0  0  0  0  0  0  0
   11.4717   -4.4874   16.9043 H   0  0  0  0  0  0  0  0  0  0  0  0
   15.9339   -3.1993   18.6763 H   0  0  0  0  0  0  0  0  0  0  0  0
   12.9497   -5.6176   21.7267 H   0  0  0  0  0  0  0  0  0  0  0  0
   10.4653   -6.4455   20.5598 H   0  0  0  0  0  0  0  0  0  0  0  0
   10.9474   -4.9385   20.9149 H   0  0  0  0  0  0  0  0  0  0  0  0
    4.9435   -2.1423   23.4005 H   0  0  0  0  0  0  0  0  0  0  0  0
    3.8936   -1.1633   25.2347 H   0  0  0  0  0  0  0  0  0  0  0  0
    5.1663   -0.8278   27.3282 H   0  0  0  0  0  0  0  0  0  0  0  0
    7.5221   -0.9712   28.3912 H   0  0  0  0  0  0  0  0  0  0  0  0
    9.6501   -2.2822   28.3504 H   0  0  0  0  0  0  0  0  0  0  0  0
    9.5713   -3.8487   26.2777 H   0  0  0  0  0  0  0  0  0  0  0  0
  1  2  2  0
  2  3  1  0
  3  4  2  0
  4  5  1  0
  5  6  2  0
  5  7  1  0
  7  8  2  0
  8  9  1  0
  9 10  1  0
 10 11  1  0
 11 12  2  0
 12 13  1  0
 13 14  1  0
 14 15  1  0
 15 16  2  0
 16 17  1  0
 17 18  2  0
 18 19  1  0
 19 20  1  0
 20 21  1  0
 21 22  2  0
 22 23  1  0
 14 24  2  0
  6  1  1  0
 24 11  1  0
  9  4  1  0
 23 15  1  0
 23 19  2  0
  1 25  1  0
  2 26  1  0
  3 27  1  0
  6 28  1  0
  8 29  1  0
 10 30  1  0
 10 31  1  0
 16 32  1  0
 17 33  1  0
 18 34  1  0
 20 35  1  0
 21 36  1  0
 22 37  1  0
M  END
>  <Energy>  (748) 
555.6124824548906

>  <compound_id>  (748) 
8481

>  <target_id>  (748) 
1

>  <reference_id>  (748) 
103

>  <inspiration_ids>  (748) 
[40, 103]

>  <energy_score>  (748) 
463.77090126819195

>  <distance_score>  (748) 
7.281865672431762

>  <path>  (748) 
/opt/xchem-fragalysis-2/maxwin/BulkDock/SCRATCH/511017/C8481-P103/C8481-P103.minimised.mol

>  <scratch_subdir>  (748) 
/opt/xchem-fragalysis-2/maxwin/BulkDock/SCRATCH/511017/C8481-P103

>  <fragmenstein_runtime>  (748) 
9.325907468795776

>  <fragmenstein_outcome>  (748) 
too moved

>  <fragmenstein_mode>  (748) 
expansion

>  <fragmenstein_error>  (748) 


$$$$
C8513-P40
     RDKit          3D

 37 41  0  0  0  0  0  0  0  0999 V2000
    5.0751   -6.9877   26.0330 C   0  0  0  0  0  0  0  0  0  0  0  0
    5.8024   -6.4975   24.9468 C   0  0  0  0  0  0  0  0  0  0  0  0
    5.9111   -5.1323   24.6427 C   0  0  0  0  0  0  0  0  0  0  0  0
    6.5408   -4.6943   23.3338 C   0  0  0  0  0  0  0  0  0  0  0  0
    7.0868   -5.3268   22.3250 N   0  0  0  0  0  0  0  0  0  0  0  0
    7.8525   -4.3394   21.0204 C   0  0  0  0  0  0  0  0  0  0  0  0
    9.8269   -4.9454   20.6815 C   0  0  0  0  0  0  0  0  0  0  0  0
   11.4049   -4.3614   21.3192 N   0  0  0  0  0  0  0  0  0  0  0  0
   11.7491   -3.9110   22.5784 C   0  0  0  0  0  0  0  0  0  0  0  0
   13.0171   -3.6007   22.7102 N   0  0  0  0  0  0  0  0  0  0  0  0
   13.5616   -3.7325   21.4772 C   0  0  0  0  0  0  0  0  0  0  0  0
   14.8639   -3.4001   21.0624 C   0  0  0  0  0  0  0  0  0  0  0  0
   15.2256   -3.5341   19.7218 C   0  0  0  0  0  0  0  0  0  0  0  0
   14.2950   -3.9796   18.8021 C   0  0  0  0  0  0  0  0  0  0  0  0
   12.9997   -4.3157   19.2077 C   0  0  0  0  0  0  0  0  0  0  0  0
   12.6286   -4.2257   20.5693 C   0  0  0  0  0  0  0  0  0  0  0  0
    7.3154   -3.1310   21.3651 N   0  0  0  0  0  0  0  0  0  0  0  0
    6.3704   -3.3512   22.7605 O   0  0  0  0  0  0  0  0  0  0  0  0
    5.2731   -4.2753   25.5757 C   0  0  0  0  0  0  0  0  0  0  0  0
    5.2222   -2.8994   25.6455 N   0  0  0  0  0  0  0  0  0  0  0  0
    4.4322   -2.4922   26.6859 C   0  0  0  0  0  0  0  0  0  0  0  0
    3.9793   -3.6125   27.3376 C   0  0  0  0  0  0  0  0  0  0  0  0
    4.5186   -4.7423   26.6663 C   0  0  0  0  0  0  0  0  0  0  0  0
    4.4134   -6.1234   26.8973 C   0  0  0  0  0  0  0  0  0  0  0  0
    5.0222   -8.0619   26.1658 H   0  0  0  0  0  0  0  0  0  0  0  0
    6.2660   -7.2109   24.2747 H   0  0  0  0  0  0  0  0  0  0  0  0
    9.9983   -5.3587   19.6774 H   0  0  0  0  0  0  0  0  0  0  0  0
   10.2445   -5.8943   21.0953 H   0  0  0  0  0  0  0  0  0  0  0  0
   11.0776   -3.7972   23.4150 H   0  0  0  0  0  0  0  0  0  0  0  0
   15.5717   -3.0246   21.7937 H   0  0  0  0  0  0  0  0  0  0  0  0
   16.2315   -3.2768   19.4040 H   0  0  0  0  0  0  0  0  0  0  0  0
   14.5619   -4.0652   17.7518 H   0  0  0  0  0  0  0  0  0  0  0  0
   12.2864   -4.5447   18.4298 H   0  0  0  0  0  0  0  0  0  0  0  0
    5.7392   -2.2923   25.0234 H   0  0  0  0  0  0  0  0  0  0  0  0
    4.2756   -1.4388   26.8784 H   0  0  0  0  0  0  0  0  0  0  0  0
    3.3452   -3.6149   28.2139 H   0  0  0  0  0  0  0  0  0  0  0  0
    3.8452   -6.5074   27.7359 H   0  0  0  0  0  0  0  0  0  0  0  0
  1  2  2  0
  2  3  1  0
  3  4  1  0
  4  5  2  0
  5  6  1  0
  6  7  1  0
  7  8  1  0
  8  9  1  0
  9 10  2  0
 10 11  1  0
 11 12  2  0
 12 13  1  0
 13 14  2  0
 14 15  1  0
 15 16  2  0
  6 17  2  0
 17 18  1  0
  3 19  2  0
 19 20  1  0
 20 21  1  0
 21 22  2  0
 22 23  1  0
 23 24  2  0
 24  1  1  0
 18  4  1  0
 23 19  1  0
 16  8  1  0
 16 11  1  0
  1 25  1  0
  2 26  1  0
  7 27  1  0
  7 28  1  0
  9 29  1  0
 12 30  1  0
 13 31  1  0
 14 32  1  0
 15 33  1  0
 20 34  1  0
 21 35  1  0
 22 36  1  0
 24 37  1  0
M  END
>  <Energy>  (749) 
332.6055958572652

>  <compound_id>  (749) 
8513

>  <target_id>  (749) 
1

>  <reference_id>  (749) 
40

>  <inspiration_ids>  (749) 
[40, 103]

>  <energy_score>  (749) 
252.00201672945582

>  <distance_score>  (749) 
6.564724835616772

>  <path>  (749) 
/opt/xchem-fragalysis-2/maxwin/BulkDock/SCRATCH/511017/C8513-P40/C8513-P40.minimised.mol

>  <scratch_subdir>  (749) 
/opt/xchem-fragalysis-2/maxwin/BulkDock/SCRATCH/511017/C8513-P40

>  <fragmenstein_runtime>  (749) 
4.864383220672607

>  <fragmenstein_outcome>  (749) 
too moved

>  <fragmenstein_mode>  (749) 
expansion

>  <fragmenstein_error>  (749) 


$$$$
C8513-P103
     RDKit          3D

 37 41  0  0  0  0  0  0  0  0999 V2000
    7.3726   -4.0168   29.7363 C   0  0  0  0  0  0  0  0  0  0  0  0
    8.2387   -3.2921   28.9086 C   0  0  0  0  0  0  0  0  0  0  0  0
    7.8070   -2.2134   28.1086 C   0  0  0  0  0  0  0  0  0  0  0  0
    8.7747   -1.4533   27.2845 C   0  0  0  0  0  0  0  0  0  0  0  0
    9.8176   -1.8516   26.5691 N   0  0  0  0  0  0  0  0  0  0  0  0
   10.4239   -0.6675   26.1461 C   0  0  0  0  0  0  0  0  0  0  0  0
   11.7025   -0.6562   25.3134 C   0  0  0  0  0  0  0  0  0  0  0  0
   11.8971    0.3480   24.2519 N   0  0  0  0  0  0  0  0  0  0  0  0
   11.0745    1.3713   23.8693 C   0  0  0  0  0  0  0  0  0  0  0  0
   11.5345    2.0316   22.8275 N   0  0  0  0  0  0  0  0  0  0  0  0
   12.7333    1.4362   22.5247 C   0  0  0  0  0  0  0  0  0  0  0  0
   13.6367    1.7242   21.4859 C   0  0  0  0  0  0  0  0  0  0  0  0
   14.7418    0.8885   21.2943 C   0  0  0  0  0  0  0  0  0  0  0  0
   14.9795   -0.1765   22.1623 C   0  0  0  0  0  0  0  0  0  0  0  0
   14.1309   -0.4354   23.2494 C   0  0  0  0  0  0  0  0  0  0  0  0
   12.9980    0.3827   23.3987 C   0  0  0  0  0  0  0  0  0  0  0  0
    9.8425    0.4246   26.6712 N   0  0  0  0  0  0  0  0  0  0  0  0
    8.7312   -0.0838   27.3775 O   0  0  0  0  0  0  0  0  0  0  0  0
    6.4159   -1.9402   28.1645 C   0  0  0  0  0  0  0  0  0  0  0  0
    5.6285   -1.0419   27.4722 N   0  0  0  0  0  0  0  0  0  0  0  0
    4.3045   -1.1921   27.7935 C   0  0  0  0  0  0  0  0  0  0  0  0
    4.2098   -2.1797   28.7404 C   0  0  0  0  0  0  0  0  0  0  0  0
    5.5244   -2.6728   28.9715 C   0  0  0  0  0  0  0  0  0  0  0  0
    6.0156   -3.7086   29.7866 C   0  0  0  0  0  0  0  0  0  0  0  0
    7.7672   -4.8226   30.3491 H   0  0  0  0  0  0  0  0  0  0  0  0
    9.2942   -3.5636   28.8936 H   0  0  0  0  0  0  0  0  0  0  0  0
   12.5500   -0.5284   25.9977 H   0  0  0  0  0  0  0  0  0  0  0  0
   11.8028   -1.6318   24.8230 H   0  0  0  0  0  0  0  0  0  0  0  0
   10.1496    1.6069   24.3755 H   0  0  0  0  0  0  0  0  0  0  0  0
   13.4398    2.5548   20.8155 H   0  0  0  0  0  0  0  0  0  0  0  0
   15.4221    1.0793   20.4685 H   0  0  0  0  0  0  0  0  0  0  0  0
   15.8432   -0.8173   21.9990 H   0  0  0  0  0  0  0  0  0  0  0  0
   14.3144   -1.2800   23.9040 H   0  0  0  0  0  0  0  0  0  0  0  0
    5.9724   -0.3975   26.7777 H   0  0  0  0  0  0  0  0  0  0  0  0
    3.5474   -0.5936   27.3042 H   0  0  0  0  0  0  0  0  0  0  0  0
    3.2923   -2.5366   29.1882 H   0  0  0  0  0  0  0  0  0  0  0  0
    5.3415   -4.2701   30.4251 H   0  0  0  0  0  0  0  0  0  0  0  0
  1  2  2  0
  2  3  1  0
  3  4  1  0
  4  5  2  0
  5  6  1  0
  6  7  1  0
  7  8  1  0
  8  9  1  0
  9 10  2  0
 10 11  1  0
 11 12  2  0
 12 13  1  0
 13 14  2  0
 14 15  1  0
 15 16  2  0
  6 17  2  0
 17 18  1  0
  3 19  2  0
 19 20  1  0
 20 21  1  0
 21 22  2  0
 22 23  1  0
 23 24  2  0
 24  1  1  0
 18  4  1  0
 23 19  1  0
 16  8  1  0
 16 11  1  0
  1 25  1  0
  2 26  1  0
  7 27  1  0
  7 28  1  0
  9 29  1  0
 12 30  1  0
 13 31  1  0
 14 32  1  0
 15 33  1  0
 20 34  1  0
 21 35  1  0
 22 36  1  0
 24 37  1  0
M  END
>  <Energy>  (750) 
71.474342492137382

>  <compound_id>  (750) 
8513

>  <target_id>  (750) 
1

>  <reference_id>  (750) 
103

>  <inspiration_ids>  (750) 
[40, 103]

>  <energy_score>  (750) 
-9.129236635671248

>  <distance_score>  (750) 
7.2177457350494345

>  <path>  (750) 
/opt/xchem-fragalysis-2/maxwin/BulkDock/SCRATCH/511017/C8513-P103/C8513-P103.minimised.mol

>  <scratch_subdir>  (750) 
/opt/xchem-fragalysis-2/maxwin/BulkDock/SCRATCH/511017/C8513-P103

>  <fragmenstein_runtime>  (750) 
5.067257642745972

>  <fragmenstein_outcome>  (750) 
too moved

>  <fragmenstein_mode>  (750) 
expansion

>  <fragmenstein_error>  (750) 


$$$$
C8514-P40
     RDKit          3D

 55 59  0  0  0  0  0  0  0  0999 V2000
   10.7168   -2.4743   24.8194 O   0  0  0  0  0  0  0  0  0  0  0  0
   11.0312   -3.3474   25.5828 C   0  0  0  0  0  0  0  0  0  0  0  0
   12.3810   -4.0453   25.3207 C   0  0  0  0  0  0  0  0  0  0  0  0
   13.3180   -3.2462   24.3517 C   0  0  0  0  0  0  0  0  0  0  0  0
   13.0530   -3.4471   22.8326 C   0  0  0  0  0  0  0  0  0  0  0  0
   13.8573   -2.6744   21.8853 N   0  0  0  0  0  0  0  0  0  0  0  0
   14.4271   -1.4452   22.0950 C   0  0  0  0  0  0  0  0  0  0  0  0
   15.0080   -0.9673   21.0145 N   0  0  0  0  0  0  0  0  0  0  0  0
   14.7711   -1.8979   20.0381 C   0  0  0  0  0  0  0  0  0  0  0  0
   15.1009   -1.8534   18.6720 C   0  0  0  0  0  0  0  0  0  0  0  0
   14.6310   -2.8623   17.8296 C   0  0  0  0  0  0  0  0  0  0  0  0
   13.8826   -3.9137   18.3506 C   0  0  0  0  0  0  0  0  0  0  0  0
   13.6009   -4.0132   19.7203 C   0  0  0  0  0  0  0  0  0  0  0  0
   14.0445   -2.9752   20.5456 C   0  0  0  0  0  0  0  0  0  0  0  0
   10.3422   -3.8757   26.7396 N   0  0  0  0  0  0  0  0  0  0  0  0
    9.4530   -5.0423   26.3337 C   0  0  0  0  0  0  0  0  0  0  0  0
    9.0419   -6.0767   27.4058 C   0  0  0  0  0  0  0  0  0  0  0  0
    7.9772   -5.4965   28.3381 C   0  0  0  0  0  0  0  0  0  0  0  0
    6.5400   -5.5106   27.7937 C   0  0  0  0  0  0  0  0  0  0  0  0
    6.1283   -5.9071   26.5327 C   0  0  0  0  0  0  0  0  0  0  0  0
    4.7670   -5.7945   26.4360 N   0  0  0  0  0  0  0  0  0  0  0  0
    4.2406   -5.3574   27.6267 C   0  0  0  0  0  0  0  0  0  0  0  0
    2.9072   -5.1064   27.9866 C   0  0  0  0  0  0  0  0  0  0  0  0
    2.6530   -4.6215   29.2705 C   0  0  0  0  0  0  0  0  0  0  0  0
    3.6981   -4.4086   30.1618 C   0  0  0  0  0  0  0  0  0  0  0  0
    5.0251   -4.6862   29.7939 C   0  0  0  0  0  0  0  0  0  0  0  0
    5.3188   -5.1623   28.4971 C   0  0  0  0  0  0  0  0  0  0  0  0
    8.5271   -4.1184   28.6791 C   0  0  0  0  0  0  0  0  0  0  0  0
    9.0611   -3.4203   27.4211 C   0  0  0  0  0  0  0  0  0  0  0  0
   12.8905   -4.1448   26.2864 H   0  0  0  0  0  0  0  0  0  0  0  0
   12.1994   -5.0471   24.9197 H   0  0  0  0  0  0  0  0  0  0  0  0
   14.3515   -3.5573   24.5511 H   0  0  0  0  0  0  0  0  0  0  0  0
   13.2607   -2.1812   24.6042 H   0  0  0  0  0  0  0  0  0  0  0  0
   13.2377   -4.5026   22.5977 H   0  0  0  0  0  0  0  0  0  0  0  0
   12.0068   -3.2435   22.5923 H   0  0  0  0  0  0  0  0  0  0  0  0
   14.3760   -0.9325   23.0462 H   0  0  0  0  0  0  0  0  0  0  0  0
   15.6695   -1.0168   18.2822 H   0  0  0  0  0  0  0  0  0  0  0  0
   14.8442   -2.8253   16.7651 H   0  0  0  0  0  0  0  0  0  0  0  0
   13.5014   -4.6780   17.6784 H   0  0  0  0  0  0  0  0  0  0  0  0
   13.0026   -4.8340   20.0987 H   0  0  0  0  0  0  0  0  0  0  0  0
    8.6218   -4.7643   25.6850 H   0  0  0  0  0  0  0  0  0  0  0  0
   10.0912   -5.6250   25.6531 H   0  0  0  0  0  0  0  0  0  0  0  0
    9.9327   -6.3478   27.9879 H   0  0  0  0  0  0  0  0  0  0  0  0
    8.6883   -6.9968   26.9262 H   0  0  0  0  0  0  0  0  0  0  0  0
    7.9484   -6.1048   29.2525 H   0  0  0  0  0  0  0  0  0  0  0  0
    6.6831   -6.2563   25.6720 H   0  0  0  0  0  0  0  0  0  0  0  0
    4.2407   -6.0047   25.5981 H   0  0  0  0  0  0  0  0  0  0  0  0
    2.0986   -5.2552   27.2824 H   0  0  0  0  0  0  0  0  0  0  0  0
    1.6341   -4.3841   29.5673 H   0  0  0  0  0  0  0  0  0  0  0  0
    3.4922   -4.0124   31.1536 H   0  0  0  0  0  0  0  0  0  0  0  0
    5.8285   -4.5093   30.5035 H   0  0  0  0  0  0  0  0  0  0  0  0
    9.3507   -4.2201   29.3980 H   0  0  0  0  0  0  0  0  0  0  0  0
    7.7654   -3.4904   29.1539 H   0  0  0  0  0  0  0  0  0  0  0  0
    8.2682   -3.1267   26.7145 H   0  0  0  0  0  0  0  0  0  0  0  0
    9.3752   -2.4278   27.7829 H   0  0  0  0  0  0  0  0  0  0  0  0
  1  2  2  0
  2  3  1  0
  3  4  1  0
  4  5  1  0
  5  6  1  0
  6  7  1  0
  7  8  2  0
  8  9  1  0
  9 10  2  0
 10 11  1  0
 11 12  2  0
 12 13  1  0
 13 14  2  0
  2 15  1  0
 15 16  1  0
 16 17  1  0
 17 18  1  0
 18 19  1  0
 19 20  2  0
 20 21  1  0
 21 22  1  0
 22 23  2  0
 23 24  1  0
 24 25  2  0
 25 26  1  0
 26 27  2  0
 18 28  1  0
 28 29  1  0
 14  6  1  0
 29 15  1  0
 14  9  1  0
 27 19  1  0
 27 22  1  0
  3 30  1  0
  3 31  1  0
  4 32  1  0
  4 33  1  0
  5 34  1  0
  5 35  1  0
  7 36  1  0
 10 37  1  0
 11 38  1  0
 12 39  1  0
 13 40  1  0
 16 41  1  0
 16 42  1  0
 17 43  1  0
 17 44  1  0
 18 45  1  0
 20 46  1  0
 21 47  1  0
 23 48  1  0
 24 49  1  0
 25 50  1  0
 26 51  1  0
 28 52  1  0
 28 53  1  0
 29 54  1  0
 29 55  1  0
M  END
>  <Energy>  (751) 
87.609114057026645

>  <compound_id>  (751) 
8514

>  <target_id>  (751) 
1

>  <reference_id>  (751) 
40

>  <inspiration_ids>  (751) 
[40, 103]

>  <energy_score>  (751) 
51.622242380209

>  <distance_score>  (751) 
4.840878098600396

>  <path>  (751) 
/opt/xchem-fragalysis-2/maxwin/BulkDock/SCRATCH/511017/C8514-P40/C8514-P40.minimised.mol

>  <scratch_subdir>  (751) 
/opt/xchem-fragalysis-2/maxwin/BulkDock/SCRATCH/511017/C8514-P40

>  <fragmenstein_runtime>  (751) 
10.30140233039856

>  <fragmenstein_outcome>  (751) 
too moved

>  <fragmenstein_mode>  (751) 
expansion

>  <fragmenstein_error>  (751) 


$$$$
C8514-P103
     RDKit          3D

 55 59  0  0  0  0  0  0  0  0999 V2000
    5.9889   -3.1560   21.4180 O   0  0  0  0  0  0  0  0  0  0  0  0
    7.0688   -3.5648   21.9804 C   0  0  0  0  0  0  0  0  0  0  0  0
    8.1107   -3.4046   21.1439 C   0  0  0  0  0  0  0  0  0  0  0  0
    8.0024   -1.1337   21.0593 C   0  0  0  0  0  0  0  0  0  0  0  0
    9.5355   -0.0274   22.2136 C   0  0  0  0  0  0  0  0  0  0  0  0
   10.9761    0.7473   22.4321 N   0  0  0  0  0  0  0  0  0  0  0  0
   11.1956    2.1166   22.2226 C   0  0  0  0  0  0  0  0  0  0  0  0
   12.4726    2.3694   22.0764 N   0  0  0  0  0  0  0  0  0  0  0  0
   13.0701    1.2915   22.6582 C   0  0  0  0  0  0  0  0  0  0  0  0
   14.4303    1.0108   22.8187 C   0  0  0  0  0  0  0  0  0  0  0  0
   14.7912   -0.0970   23.5887 C   0  0  0  0  0  0  0  0  0  0  0  0
   13.8199   -0.8622   24.2380 C   0  0  0  0  0  0  0  0  0  0  0  0
   12.4517   -0.5973   24.0878 C   0  0  0  0  0  0  0  0  0  0  0  0
   12.1069    0.4298   23.1955 C   0  0  0  0  0  0  0  0  0  0  0  0
    7.3114   -3.9305   23.1721 N   0  0  0  0  0  0  0  0  0  0  0  0
    7.1017   -5.3984   23.3164 C   0  0  0  0  0  0  0  0  0  0  0  0
    5.6112   -5.7242   24.0774 C   0  0  0  0  0  0  0  0  0  0  0  0
    4.5102   -3.9917   24.7066 C   0  0  0  0  0  0  0  0  0  0  0  0
    3.5737   -2.9669   25.9983 C   0  0  0  0  0  0  0  0  0  0  0  0
    3.4464   -1.6051   25.6758 C   0  0  0  0  0  0  0  0  0  0  0  0
    2.8954   -0.8364   26.6346 N   0  0  0  0  0  0  0  0  0  0  0  0
    2.3496   -1.6008   27.6035 C   0  0  0  0  0  0  0  0  0  0  0  0
    1.5145   -1.1451   28.6467 C   0  0  0  0  0  0  0  0  0  0  0  0
    1.1145   -2.0229   29.6353 C   0  0  0  0  0  0  0  0  0  0  0  0
    1.6068   -3.2999   29.6007 C   0  0  0  0  0  0  0  0  0  0  0  0
    2.4500   -3.7076   28.5422 C   0  0  0  0  0  0  0  0  0  0  0  0
    2.8188   -2.9160   27.4007 C   0  0  0  0  0  0  0  0  0  0  0  0
    5.4206   -2.7642   24.5742 C   0  0  0  0  0  0  0  0  0  0  0  0
    6.5871   -3.9064   24.2332 C   0  0  0  0  0  0  0  0  0  0  0  0
    7.7565   -4.2778   20.5171 H   0  0  0  0  0  0  0  0  0  0  0  0
    8.7765   -3.7852   20.3305 H   0  0  0  0  0  0  0  0  0  0  0  0
    6.9697   -0.7759   20.9598 H   0  0  0  0  0  0  0  0  0  0  0  0
    8.1837   -0.7953   20.0034 H   0  0  0  0  0  0  0  0  0  0  0  0
    9.4572   -0.0867   23.3153 H   0  0  0  0  0  0  0  0  0  0  0  0
    9.1375    1.1033   22.3511 H   0  0  0  0  0  0  0  0  0  0  0  0
   10.3982    2.8348   22.0932 H   0  0  0  0  0  0  0  0  0  0  0  0
   15.1773    1.6584   22.3757 H   0  0  0  0  0  0  0  0  0  0  0  0
   15.8429   -0.3372   23.7203 H   0  0  0  0  0  0  0  0  0  0  0  0
   14.1285   -1.7055   24.8517 H   0  0  0  0  0  0  0  0  0  0  0  0
   11.7125   -1.2656   24.5117 H   0  0  0  0  0  0  0  0  0  0  0  0
    7.9764   -5.9365   23.6517 H   0  0  0  0  0  0  0  0  0  0  0  0
    7.1099   -6.0076   22.4278 H   0  0  0  0  0  0  0  0  0  0  0  0
    5.1059   -6.5622   23.5365 H   0  0  0  0  0  0  0  0  0  0  0  0
    6.0360   -6.6876   24.4910 H   0  0  0  0  0  0  0  0  0  0  0  0
    4.2006   -4.7730   25.2248 H   0  0  0  0  0  0  0  0  0  0  0  0
    3.7734   -1.0677   24.8110 H   0  0  0  0  0  0  0  0  0  0  0  0
    2.7816    0.1617   26.5616 H   0  0  0  0  0  0  0  0  0  0  0  0
    1.1936   -0.1080   28.6793 H   0  0  0  0  0  0  0  0  0  0  0  0
    0.4714   -1.6925   30.4436 H   0  0  0  0  0  0  0  0  0  0  0  0
    1.3739   -3.9974   30.4019 H   0  0  0  0  0  0  0  0  0  0  0  0
    2.8275   -4.6815   28.7566 H   0  0  0  0  0  0  0  0  0  0  0  0
    5.0364   -2.0744   23.7708 H   0  0  0  0  0  0  0  0  0  0  0  0
    5.7405   -2.0970   25.4036 H   0  0  0  0  0  0  0  0  0  0  0  0
    6.3384   -3.0679   23.6698 H   0  0  0  0  0  0  0  0  0  0  0  0
    7.3628   -3.4610   24.9397 H   0  0  0  0  0  0  0  0  0  0  0  0
  1  2  2  0
  2  3  1  0
  3  4  1  0
  4  5  1  0
  5  6  1  0
  6  7  1  0
  7  8  2  0
  8  9  1  0
  9 10  2  0
 10 11  1  0
 11 12  2  0
 12 13  1  0
 13 14  2  0
  2 15  1  0
 15 16  1  0
 16 17  1  0
 17 18  1  0
 18 19  1  0
 19 20  2  0
 20 21  1  0
 21 22  1  0
 22 23  2  0
 23 24  1  0
 24 25  2  0
 25 26  1  0
 26 27  2  0
 18 28  1  0
 28 29  1  0
 14  6  1  0
 29 15  1  0
 14  9  1  0
 27 19  1  0
 27 22  1  0
  3 30  1  0
  3 31  1  0
  4 32  1  0
  4 33  1  0
  5 34  1  0
  5 35  1  0
  7 36  1  0
 10 37  1  0
 11 38  1  0
 12 39  1  0
 13 40  1  0
 16 41  1  0
 16 42  1  0
 17 43  1  0
 17 44  1  0
 18 45  1  0
 20 46  1  0
 21 47  1  0
 23 48  1  0
 24 49  1  0
 25 50  1  0
 26 51  1  0
 28 52  1  0
 28 53  1  0
 29 54  1  0
 29 55  1  0
M  END
>  <Energy>  (752) 
1071.9398112907566

>  <compound_id>  (752) 
8514

>  <target_id>  (752) 
1

>  <reference_id>  (752) 
103

>  <inspiration_ids>  (752) 
[40, 103]

>  <energy_score>  (752) 
1035.9529396139483

>  <distance_score>  (752) 
6.011639418575154

>  <path>  (752) 
/opt/xchem-fragalysis-2/maxwin/BulkDock/SCRATCH/511017/C8514-P103/C8514-P103.minimised.mol

>  <scratch_subdir>  (752) 
/opt/xchem-fragalysis-2/maxwin/BulkDock/SCRATCH/511017/C8514-P103

>  <fragmenstein_runtime>  (752) 
14.413595199584961

>  <fragmenstein_outcome>  (752) 
too moved

>  <fragmenstein_mode>  (752) 
expansion

>  <fragmenstein_error>  (752) 


$$$$
C6901-P40
     RDKit          3D

 47 51  0  0  0  0  0  0  0  0999 V2000
   10.1730   -4.0403   28.3252 O   0  0  0  0  0  0  0  0  0  0  0  0
    9.7986   -4.0725   27.2128 C   0  0  0  0  0  0  0  0  0  0  0  0
   10.5879   -3.9853   25.9205 N   0  0  0  0  0  0  0  0  0  0  0  0
   12.0259   -3.9352   25.6887 C   0  0  0  0  0  0  0  0  0  0  0  0
   12.5811   -3.5814   24.3289 C   0  0  0  0  0  0  0  0  0  0  0  0
   12.6324   -4.4725   23.2547 C   0  0  0  0  0  0  0  0  0  0  0  0
   13.2398   -4.1162   22.0294 C   0  0  0  0  0  0  0  0  0  0  0  0
   13.8553   -2.8775   21.9072 C   0  0  0  0  0  0  0  0  0  0  0  0
   14.4222   -2.3963   20.6732 N   0  0  0  0  0  0  0  0  0  0  0  0
   15.1970   -1.2499   20.6102 C   0  0  0  0  0  0  0  0  0  0  0  0
   15.5504   -0.9199   19.3899 N   0  0  0  0  0  0  0  0  0  0  0  0
   14.9645   -1.8605   18.5916 C   0  0  0  0  0  0  0  0  0  0  0  0
   14.9536   -1.9128   17.1848 C   0  0  0  0  0  0  0  0  0  0  0  0
   14.2108   -2.9016   16.5418 C   0  0  0  0  0  0  0  0  0  0  0  0
   13.5050   -3.8316   17.2922 C   0  0  0  0  0  0  0  0  0  0  0  0
   13.5279   -3.8124   18.6956 C   0  0  0  0  0  0  0  0  0  0  0  0
   14.2609   -2.8082   19.3458 C   0  0  0  0  0  0  0  0  0  0  0  0
   13.9189   -2.0400   22.9768 N   0  0  0  0  0  0  0  0  0  0  0  0
   13.2593   -2.3846   24.1227 C   0  0  0  0  0  0  0  0  0  0  0  0
    8.4093   -4.3128   26.6602 N   0  0  0  0  0  0  0  0  0  0  0  0
    7.1699   -4.4711   27.3200 C   0  0  0  0  0  0  0  0  0  0  0  0
    7.0294   -4.2514   28.6920 C   0  0  0  0  0  0  0  0  0  0  0  0
    5.7851   -4.3559   29.3395 C   0  0  0  0  0  0  0  0  0  0  0  0
    4.6818   -4.7426   28.5739 C   0  0  0  0  0  0  0  0  0  0  0  0
    3.3612   -4.8947   28.9264 N   0  0  0  0  0  0  0  0  0  0  0  0
    2.6368   -5.3559   27.8581 C   0  0  0  0  0  0  0  0  0  0  0  0
    3.4937   -5.4564   26.7854 C   0  0  0  0  0  0  0  0  0  0  0  0
    4.7841   -5.0301   27.2148 C   0  0  0  0  0  0  0  0  0  0  0  0
    6.0384   -4.8608   26.5779 C   0  0  0  0  0  0  0  0  0  0  0  0
    9.9527   -3.9617   25.1448 H   0  0  0  0  0  0  0  0  0  0  0  0
   12.4120   -4.9222   25.9730 H   0  0  0  0  0  0  0  0  0  0  0  0
   12.4286   -3.2499   26.4450 H   0  0  0  0  0  0  0  0  0  0  0  0
   12.2404   -5.4790   23.3653 H   0  0  0  0  0  0  0  0  0  0  0  0
   13.2517   -4.8477   21.2333 H   0  0  0  0  0  0  0  0  0  0  0  0
   15.4662   -0.7029   21.5053 H   0  0  0  0  0  0  0  0  0  0  0  0
   15.4996   -1.1666   16.6175 H   0  0  0  0  0  0  0  0  0  0  0  0
   14.1850   -2.9459   15.4564 H   0  0  0  0  0  0  0  0  0  0  0  0
   12.9270   -4.6034   16.7842 H   0  0  0  0  0  0  0  0  0  0  0  0
   12.9421   -4.5493   19.2276 H   0  0  0  0  0  0  0  0  0  0  0  0
   13.3199   -1.6313   24.9058 H   0  0  0  0  0  0  0  0  0  0  0  0
    8.4215   -4.1914   25.6596 H   0  0  0  0  0  0  0  0  0  0  0  0
    7.8907   -3.9510   29.2858 H   0  0  0  0  0  0  0  0  0  0  0  0
    5.7007   -4.1371   30.3990 H   0  0  0  0  0  0  0  0  0  0  0  0
    2.9909   -4.6816   29.8425 H   0  0  0  0  0  0  0  0  0  0  0  0
    1.5784   -5.5423   27.9570 H   0  0  0  0  0  0  0  0  0  0  0  0
    3.2359   -5.7833   25.7881 H   0  0  0  0  0  0  0  0  0  0  0  0
    6.1217   -5.0474   25.5108 H   0  0  0  0  0  0  0  0  0  0  0  0
  1  2  2  0
  2  3  1  0
  3  4  1  0
  4  5  1  0
  5  6  2  0
  6  7  1  0
  7  8  2  0
  8  9  1  0
  9 10  1  0
 10 11  2  0
 11 12  1  0
 12 13  2  0
 13 14  1  0
 14 15  2  0
 15 16  1  0
 16 17  2  0
  8 18  1  0
 18 19  2  0
  2 20  1  0
 20 21  1  0
 21 22  2  0
 22 23  1  0
 23 24  2  0
 24 25  1  0
 25 26  1  0
 26 27  2  0
 27 28  1  0
 28 29  2  0
 19  5  1  0
 29 21  1  0
 17  9  1  0
 28 24  1  0
 17 12  1  0
  3 30  1  0
  4 31  1  0
  4 32  1  0
  6 33  1  0
  7 34  1  0
 10 35  1  0
 13 36  1  0
 14 37  1  0
 15 38  1  0
 16 39  1  0
 19 40  1  0
 20 41  1  0
 22 42  1  0
 23 43  1  0
 25 44  1  0
 26 45  1  0
 27 46  1  0
 29 47  1  0
M  END
>  <Energy>  (753) 
21.85060945880997

>  <compound_id>  (753) 
6901

>  <target_id>  (753) 
1

>  <reference_id>  (753) 
40

>  <inspiration_ids>  (753) 
[40, 103]

>  <energy_score>  (753) 
-21.46269980237338

>  <distance_score>  (753) 
6.166338274335654

>  <path>  (753) 
/opt/xchem-fragalysis-2/maxwin/BulkDock/SCRATCH/511017/C6901-P40/C6901-P40.minimised.mol

>  <scratch_subdir>  (753) 
/opt/xchem-fragalysis-2/maxwin/BulkDock/SCRATCH/511017/C6901-P40

>  <fragmenstein_runtime>  (753) 
15.78846287727356

>  <fragmenstein_outcome>  (753) 
too moved

>  <fragmenstein_mode>  (753) 
expansion

>  <fragmenstein_error>  (753) 


$$$$
C6901-P103
     RDKit          3D

 47 51  0  0  0  0  0  0  0  0999 V2000
    9.3077    0.8104   27.0194 O   0  0  0  0  0  0  0  0  0  0  0  0
    9.7915   -0.2533   26.9003 C   0  0  0  0  0  0  0  0  0  0  0  0
   11.1509   -0.6465   26.3852 N   0  0  0  0  0  0  0  0  0  0  0  0
   12.2855    0.1726   25.9810 C   0  0  0  0  0  0  0  0  0  0  0  0
   13.0046   -0.1730   24.7011 C   0  0  0  0  0  0  0  0  0  0  0  0
   13.6697   -1.3801   24.5046 C   0  0  0  0  0  0  0  0  0  0  0  0
   14.3458   -1.6291   23.2949 C   0  0  0  0  0  0  0  0  0  0  0  0
   14.3442   -0.6636   22.2758 C   0  0  0  0  0  0  0  0  0  0  0  0
   14.7318   -1.0316   20.9319 N   0  0  0  0  0  0  0  0  0  0  0  0
   15.0917   -2.2980   20.5097 C   0  0  0  0  0  0  0  0  0  0  0  0
   15.1527   -2.4230   19.2038 N   0  0  0  0  0  0  0  0  0  0  0  0
   14.8733   -1.1792   18.7234 C   0  0  0  0  0  0  0  0  0  0  0  0
   14.7535   -0.7719   17.3845 C   0  0  0  0  0  0  0  0  0  0  0  0
   14.4594    0.5629   17.1109 C   0  0  0  0  0  0  0  0  0  0  0  0
   14.3178    1.4766   18.1535 C   0  0  0  0  0  0  0  0  0  0  0  0
   14.4389    1.0879   19.4966 C   0  0  0  0  0  0  0  0  0  0  0  0
   14.6827   -0.2654   19.7645 C   0  0  0  0  0  0  0  0  0  0  0  0
   13.8053    0.5641   22.4921 N   0  0  0  0  0  0  0  0  0  0  0  0
   13.1441    0.7642   23.6728 C   0  0  0  0  0  0  0  0  0  0  0  0
    9.2478   -1.6197   27.2736 N   0  0  0  0  0  0  0  0  0  0  0  0
    8.0591   -1.9861   27.9479 C   0  0  0  0  0  0  0  0  0  0  0  0
    7.0278   -1.0655   28.1546 C   0  0  0  0  0  0  0  0  0  0  0  0
    5.8385   -1.4087   28.8207 C   0  0  0  0  0  0  0  0  0  0  0  0
    5.7275   -2.7054   29.3264 C   0  0  0  0  0  0  0  0  0  0  0  0
    4.7072   -3.2959   30.0349 N   0  0  0  0  0  0  0  0  0  0  0  0
    5.0613   -4.5722   30.3931 C   0  0  0  0  0  0  0  0  0  0  0  0
    6.3005   -4.8323   29.8495 C   0  0  0  0  0  0  0  0  0  0  0  0
    6.7345   -3.6562   29.1666 C   0  0  0  0  0  0  0  0  0  0  0  0
    7.9016   -3.2963   28.4405 C   0  0  0  0  0  0  0  0  0  0  0  0
   11.2739   -1.6342   26.4947 H   0  0  0  0  0  0  0  0  0  0  0  0
   11.9238    1.2067   25.9407 H   0  0  0  0  0  0  0  0  0  0  0  0
   13.0066    0.1319   26.8059 H   0  0  0  0  0  0  0  0  0  0  0  0
   13.6520   -2.1509   25.2703 H   0  0  0  0  0  0  0  0  0  0  0  0
   14.7897   -2.6089   23.1685 H   0  0  0  0  0  0  0  0  0  0  0  0
   15.2614   -3.1188   21.1899 H   0  0  0  0  0  0  0  0  0  0  0  0
   14.8880   -1.4923   16.5849 H   0  0  0  0  0  0  0  0  0  0  0  0
   14.3575    0.8940   16.0806 H   0  0  0  0  0  0  0  0  0  0  0  0
   14.0949    2.5182   17.9260 H   0  0  0  0  0  0  0  0  0  0  0  0
   14.2963    1.8096   20.2957 H   0  0  0  0  0  0  0  0  0  0  0  0
   12.7007    1.7543   23.7606 H   0  0  0  0  0  0  0  0  0  0  0  0
    9.8836   -2.3272   26.9612 H   0  0  0  0  0  0  0  0  0  0  0  0
    7.1155   -0.0527   27.7671 H   0  0  0  0  0  0  0  0  0  0  0  0
    5.0458   -0.6775   28.9396 H   0  0  0  0  0  0  0  0  0  0  0  0
    3.8462   -2.8297   30.2876 H   0  0  0  0  0  0  0  0  0  0  0  0
    4.3963   -5.1656   31.0039 H   0  0  0  0  0  0  0  0  0  0  0  0
    6.8608   -5.7503   29.9543 H   0  0  0  0  0  0  0  0  0  0  0  0
    8.6857   -4.0315   28.2992 H   0  0  0  0  0  0  0  0  0  0  0  0
  1  2  2  0
  2  3  1  0
  3  4  1  0
  4  5  1  0
  5  6  2  0
  6  7  1  0
  7  8  2  0
  8  9  1  0
  9 10  1  0
 10 11  2  0
 11 12  1  0
 12 13  2  0
 13 14  1  0
 14 15  2  0
 15 16  1  0
 16 17  2  0
  8 18  1  0
 18 19  2  0
  2 20  1  0
 20 21  1  0
 21 22  2  0
 22 23  1  0
 23 24  2  0
 24 25  1  0
 25 26  1  0
 26 27  2  0
 27 28  1  0
 28 29  2  0
 19  5  1  0
 29 21  1  0
 17  9  1  0
 28 24  1  0
 17 12  1  0
  3 30  1  0
  4 31  1  0
  4 32  1  0
  6 33  1  0
  7 34  1  0
 10 35  1  0
 13 36  1  0
 14 37  1  0
 15 38  1  0
 16 39  1  0
 19 40  1  0
 20 41  1  0
 22 42  1  0
 23 43  1  0
 25 44  1  0
 26 45  1  0
 27 46  1  0
 29 47  1  0
M  END
>  <Energy>  (754) 
20.978699703220354

>  <compound_id>  (754) 
6901

>  <target_id>  (754) 
1

>  <reference_id>  (754) 
103

>  <inspiration_ids>  (754) 
[40, 103]

>  <energy_score>  (754) 
-22.334609557961983

>  <distance_score>  (754) 
7.226427527147593

>  <path>  (754) 
/opt/xchem-fragalysis-2/maxwin/BulkDock/SCRATCH/511017/C6901-P103/C6901-P103.minimised.mol

>  <scratch_subdir>  (754) 
/opt/xchem-fragalysis-2/maxwin/BulkDock/SCRATCH/511017/C6901-P103

>  <fragmenstein_runtime>  (754) 
17.78522539138794

>  <fragmenstein_outcome>  (754) 
too moved

>  <fragmenstein_mode>  (754) 
expansion

>  <fragmenstein_error>  (754) 


$$$$
C6880-P40
     RDKit          3D

 48 52  0  0  0  0  0  0  0  0999 V2000
    7.1609    1.9054   27.6665 O   0  0  0  0  0  0  0  0  0  0  0  0
    7.6448    1.0427   27.0319 C   0  0  0  0  0  0  0  0  0  0  0  0
    8.9645    0.9973   26.3040 N   0  0  0  0  0  0  0  0  0  0  0  0
   10.0611    1.9661   26.2553 C   0  0  0  0  0  0  0  0  0  0  0  0
   10.3464    2.6091   24.9085 C   0  0  0  0  0  0  0  0  0  0  0  0
   10.5488    3.9925   24.7714 C   0  0  0  0  0  0  0  0  0  0  0  0
   10.7463    4.5950   23.5031 C   0  0  0  0  0  0  0  0  0  0  0  0
   10.7029    3.8287   22.3245 C   0  0  0  0  0  0  0  0  0  0  0  0
   10.6636    4.4682   21.0348 N   0  0  0  0  0  0  0  0  0  0  0  0
   11.2695    5.6806   20.7619 C   0  0  0  0  0  0  0  0  0  0  0  0
   11.0679    6.1110   19.5393 N   0  0  0  0  0  0  0  0  0  0  0  0
   10.2941    5.1504   18.9533 C   0  0  0  0  0  0  0  0  0  0  0  0
    9.8187    5.1031   17.6248 C   0  0  0  0  0  0  0  0  0  0  0  0
    9.0807    4.0007   17.1857 C   0  0  0  0  0  0  0  0  0  0  0  0
    8.7839    2.9775   18.0717 C   0  0  0  0  0  0  0  0  0  0  0  0
    9.2031    3.0383   19.4097 C   0  0  0  0  0  0  0  0  0  0  0  0
   10.0047    4.1109   19.8487 C   0  0  0  0  0  0  0  0  0  0  0  0
   10.5962    2.4501   22.4765 C   0  0  0  0  0  0  0  0  0  0  0  0
   10.4652    1.8496   23.7473 C   0  0  0  0  0  0  0  0  0  0  0  0
    7.1295   -0.3597   26.7303 N   0  0  0  0  0  0  0  0  0  0  0  0
    5.9454   -1.0171   27.1443 C   0  0  0  0  0  0  0  0  0  0  0  0
    4.9478   -0.3589   27.8665 C   0  0  0  0  0  0  0  0  0  0  0  0
    3.7597   -1.0045   28.2593 C   0  0  0  0  0  0  0  0  0  0  0  0
    3.5957   -2.3487   27.9096 C   0  0  0  0  0  0  0  0  0  0  0  0
    2.5445   -3.2084   28.1367 N   0  0  0  0  0  0  0  0  0  0  0  0
    2.8270   -4.4487   27.6216 C   0  0  0  0  0  0  0  0  0  0  0  0
    4.0679   -4.3806   27.0272 C   0  0  0  0  0  0  0  0  0  0  0  0
    4.5658   -3.0546   27.2029 C   0  0  0  0  0  0  0  0  0  0  0  0
    5.7523   -2.3754   26.8217 C   0  0  0  0  0  0  0  0  0  0  0  0
    9.1056    0.0796   25.9305 H   0  0  0  0  0  0  0  0  0  0  0  0
   10.9630    1.4459   26.5957 H   0  0  0  0  0  0  0  0  0  0  0  0
    9.8251    2.7429   26.9910 H   0  0  0  0  0  0  0  0  0  0  0  0
   10.5116    4.6343   25.6511 H   0  0  0  0  0  0  0  0  0  0  0  0
   10.8237    5.6799   23.4743 H   0  0  0  0  0  0  0  0  0  0  0  0
   11.8720    6.1990   21.4953 H   0  0  0  0  0  0  0  0  0  0  0  0
   10.0689    5.9108   16.9456 H   0  0  0  0  0  0  0  0  0  0  0  0
    8.7591    3.9447   16.1500 H   0  0  0  0  0  0  0  0  0  0  0  0
    8.2491    2.1014   17.7199 H   0  0  0  0  0  0  0  0  0  0  0  0
    8.9715    2.1989   20.0435 H   0  0  0  0  0  0  0  0  0  0  0  0
   10.5554    1.8037   21.6200 H   0  0  0  0  0  0  0  0  0  0  0  0
   10.3849    0.7713   23.8150 H   0  0  0  0  0  0  0  0  0  0  0  0
    7.8280   -0.8698   26.2252 H   0  0  0  0  0  0  0  0  0  0  0  0
    5.0657    0.6908   28.1279 H   0  0  0  0  0  0  0  0  0  0  0  0
    2.9949   -0.4588   28.8031 H   0  0  0  0  0  0  0  0  0  0  0  0
    1.6884   -2.9416   28.6049 H   0  0  0  0  0  0  0  0  0  0  0  0
    2.1204   -5.2595   27.7175 H   0  0  0  0  0  0  0  0  0  0  0  0
    4.5764   -5.1874   26.5146 H   0  0  0  0  0  0  0  0  0  0  0  0
    6.5084   -2.9212   26.2674 H   0  0  0  0  0  0  0  0  0  0  0  0
  1  2  2  0
  2  3  1  0
  3  4  1  0
  4  5  1  0
  5  6  2  0
  6  7  1  0
  7  8  2  0
  8  9  1  0
  9 10  1  0
 10 11  2  0
 11 12  1  0
 12 13  2  0
 13 14  1  0
 14 15  2  0
 15 16  1  0
 16 17  2  0
  8 18  1  0
 18 19  2  0
  2 20  1  0
 20 21  1  0
 21 22  2  0
 22 23  1  0
 23 24  2  0
 24 25  1  0
 25 26  1  0
 26 27  2  0
 27 28  1  0
 28 29  2  0
 19  5  1  0
 29 21  1  0
 17  9  1  0
 28 24  1  0
 17 12  1  0
  3 30  1  0
  4 31  1  0
  4 32  1  0
  6 33  1  0
  7 34  1  0
 10 35  1  0
 13 36  1  0
 14 37  1  0
 15 38  1  0
 16 39  1  0
 18 40  1  0
 19 41  1  0
 20 42  1  0
 22 43  1  0
 23 44  1  0
 25 45  1  0
 26 46  1  0
 27 47  1  0
 29 48  1  0
M  END
>  <Energy>  (755) 
23.540839475919242

>  <compound_id>  (755) 
6880

>  <target_id>  (755) 
1

>  <reference_id>  (755) 
40

>  <inspiration_ids>  (755) 
[40, 103]

>  <energy_score>  (755) 
-20.74278330081694

>  <distance_score>  (755) 
7.4342720044902455

>  <path>  (755) 
/opt/xchem-fragalysis-2/maxwin/BulkDock/SCRATCH/511017/C6880-P40/C6880-P40.minimised.mol

>  <scratch_subdir>  (755) 
/opt/xchem-fragalysis-2/maxwin/BulkDock/SCRATCH/511017/C6880-P40

>  <fragmenstein_runtime>  (755) 
16.996753454208374

>  <fragmenstein_outcome>  (755) 
too moved

>  <fragmenstein_mode>  (755) 
expansion

>  <fragmenstein_error>  (755) 


$$$$
C6880-P103
     RDKit          3D

 48 52  0  0  0  0  0  0  0  0999 V2000
    9.9565    0.4523   27.8897 O   0  0  0  0  0  0  0  0  0  0  0  0
    9.5541   -0.3255   27.1031 C   0  0  0  0  0  0  0  0  0  0  0  0
   10.0389   -0.6416   25.7172 N   0  0  0  0  0  0  0  0  0  0  0  0
   11.0863   -0.0121   24.8992 C   0  0  0  0  0  0  0  0  0  0  0  0
   11.1062   -0.6295   23.4808 C   0  0  0  0  0  0  0  0  0  0  0  0
   11.6380   -2.3322   23.4936 C   0  0  0  0  0  0  0  0  0  0  0  0
   11.4380   -3.3313   22.0195 C   0  0  0  0  0  0  0  0  0  0  0  0
   10.5526   -2.7951   20.4207 C   0  0  0  0  0  0  0  0  0  0  0  0
   12.3310   -3.0878   19.7944 N   0  0  0  0  0  0  0  0  0  0  0  0
   13.5561   -2.9244   20.5064 C   0  0  0  0  0  0  0  0  0  0  0  0
   14.6116   -2.6991   19.7612 N   0  0  0  0  0  0  0  0  0  0  0  0
   14.1848   -2.7785   18.4818 C   0  0  0  0  0  0  0  0  0  0  0  0
   14.9218   -2.4985   17.3183 C   0  0  0  0  0  0  0  0  0  0  0  0
   14.3175   -2.6327   16.0727 C   0  0  0  0  0  0  0  0  0  0  0  0
   13.0300   -3.1345   15.9869 C   0  0  0  0  0  0  0  0  0  0  0  0
   12.3147   -3.4887   17.1324 C   0  0  0  0  0  0  0  0  0  0  0  0
   12.8519   -3.1941   18.4051 C   0  0  0  0  0  0  0  0  0  0  0  0
    9.5291   -0.8170   20.2520 C   0  0  0  0  0  0  0  0  0  0  0  0
   10.0478   -0.0631   22.0682 C   0  0  0  0  0  0  0  0  0  0  0  0
    8.3343   -1.2276   27.1538 N   0  0  0  0  0  0  0  0  0  0  0  0
    7.2978   -1.3204   28.1044 C   0  0  0  0  0  0  0  0  0  0  0  0
    7.4530   -1.1125   29.4674 C   0  0  0  0  0  0  0  0  0  0  0  0
    6.3969   -1.3783   30.3712 C   0  0  0  0  0  0  0  0  0  0  0  0
    5.1690   -1.8331   29.8609 C   0  0  0  0  0  0  0  0  0  0  0  0
    3.9938   -2.1867   30.4870 N   0  0  0  0  0  0  0  0  0  0  0  0
    3.0441   -2.5376   29.5603 C   0  0  0  0  0  0  0  0  0  0  0  0
    3.6031   -2.3882   28.3125 C   0  0  0  0  0  0  0  0  0  0  0  0
    4.9541   -1.9782   28.4957 C   0  0  0  0  0  0  0  0  0  0  0  0
    6.0296   -1.6999   27.6269 C   0  0  0  0  0  0  0  0  0  0  0  0
    9.5199   -1.4169   25.3533 H   0  0  0  0  0  0  0  0  0  0  0  0
   12.0497   -0.1663   25.3928 H   0  0  0  0  0  0  0  0  0  0  0  0
   10.8865    1.0610   24.8405 H   0  0  0  0  0  0  0  0  0  0  0  0
   12.1889   -2.7231   24.3441 H   0  0  0  0  0  0  0  0  0  0  0  0
   12.0140   -4.2662   22.0042 H   0  0  0  0  0  0  0  0  0  0  0  0
   13.6272   -2.8662   21.5815 H   0  0  0  0  0  0  0  0  0  0  0  0
   15.9465   -2.1524   17.4055 H   0  0  0  0  0  0  0  0  0  0  0  0
   14.8695   -2.3772   15.1720 H   0  0  0  0  0  0  0  0  0  0  0  0
   12.5609   -3.2649   15.0134 H   0  0  0  0  0  0  0  0  0  0  0  0
   11.3554   -3.9597   16.9820 H   0  0  0  0  0  0  0  0  0  0  0  0
    8.3674   -0.6954   20.0852 H   0  0  0  0  0  0  0  0  0  0  0  0
    9.6157    0.8721   22.5252 H   0  0  0  0  0  0  0  0  0  0  0  0
    8.2377   -1.7072   26.2781 H   0  0  0  0  0  0  0  0  0  0  0  0
    8.4142   -0.7860   29.8585 H   0  0  0  0  0  0  0  0  0  0  0  0
    6.5472   -1.2396   31.4374 H   0  0  0  0  0  0  0  0  0  0  0  0
    3.8506   -2.1668   31.4869 H   0  0  0  0  0  0  0  0  0  0  0  0
    2.0503   -2.8333   29.8679 H   0  0  0  0  0  0  0  0  0  0  0  0
    3.1082   -2.5590   27.3636 H   0  0  0  0  0  0  0  0  0  0  0  0
    5.8526   -1.7699   26.5583 H   0  0  0  0  0  0  0  0  0  0  0  0
  1  2  2  0
  2  3  1  0
  3  4  1  0
  4  5  1  0
  5  6  2  0
  6  7  1  0
  7  8  2  0
  8  9  1  0
  9 10  1  0
 10 11  2  0
 11 12  1  0
 12 13  2  0
 13 14  1  0
 14 15  2  0
 15 16  1  0
 16 17  2  0
  8 18  1  0
 18 19  2  0
  2 20  1  0
 20 21  1  0
 21 22  2  0
 22 23  1  0
 23 24  2  0
 24 25  1  0
 25 26  1  0
 26 27  2  0
 27 28  1  0
 28 29  2  0
 19  5  1  0
 29 21  1  0
 17  9  1  0
 28 24  1  0
 17 12  1  0
  3 30  1  0
  4 31  1  0
  4 32  1  0
  6 33  1  0
  7 34  1  0
 10 35  1  0
 13 36  1  0
 14 37  1  0
 15 38  1  0
 16 39  1  0
 18 40  1  0
 19 41  1  0
 20 42  1  0
 22 43  1  0
 23 44  1  0
 25 45  1  0
 26 46  1  0
 27 47  1  0
 29 48  1  0
M  END
>  <Energy>  (756) 
806.53305130631975

>  <compound_id>  (756) 
6880

>  <target_id>  (756) 
1

>  <reference_id>  (756) 
103

>  <inspiration_ids>  (756) 
[40, 103]

>  <energy_score>  (756) 
762.2494285295827

>  <distance_score>  (756) 
6.905609428900548

>  <path>  (756) 
/opt/xchem-fragalysis-2/maxwin/BulkDock/SCRATCH/511017/C6880-P103/C6880-P103.minimised.mol

>  <scratch_subdir>  (756) 
/opt/xchem-fragalysis-2/maxwin/BulkDock/SCRATCH/511017/C6880-P103

>  <fragmenstein_runtime>  (756) 
15.087734937667847

>  <fragmenstein_outcome>  (756) 
too moved

>  <fragmenstein_mode>  (756) 
expansion

>  <fragmenstein_error>  (756) 


$$$$
C8517-P40
     RDKit          3D

 49 52  0  0  0  0  0  0  0  0999 V2000
    1.6625   -4.3957   31.4697 C   0  0  0  0  0  0  0  0  0  0  0  0
    3.0374   -4.4272   31.0912 O   0  0  0  0  0  0  0  0  0  0  0  0
    3.3387   -4.7433   29.7887 C   0  0  0  0  0  0  0  0  0  0  0  0
    2.3960   -5.0743   28.8232 C   0  0  0  0  0  0  0  0  0  0  0  0
    2.7990   -5.4275   27.5347 C   0  0  0  0  0  0  0  0  0  0  0  0
    4.1656   -5.4315   27.2300 C   0  0  0  0  0  0  0  0  0  0  0  0
    4.7929   -5.7566   26.0519 N   0  0  0  0  0  0  0  0  0  0  0  0
    6.1406   -5.6064   26.1815 C   0  0  0  0  0  0  0  0  0  0  0  0
    6.4384   -5.1669   27.4583 C   0  0  0  0  0  0  0  0  0  0  0  0
    7.8726   -4.9115   27.9226 C   0  0  0  0  0  0  0  0  0  0  0  0
    8.5605   -3.6751   27.2744 C   0  0  0  0  0  0  0  0  0  0  0  0
    9.9378   -3.8040   26.7410 N   0  0  0  0  0  0  0  0  0  0  0  0
   10.5390   -4.8143   25.8987 C   0  0  0  0  0  0  0  0  0  0  0  0
   10.0961   -5.8512   25.4807 O   0  0  0  0  0  0  0  0  0  0  0  0
   12.0556   -4.5465   25.5690 C   0  0  0  0  0  0  0  0  0  0  0  0
   12.8784   -4.3979   26.8571 C   0  0  0  0  0  0  0  0  0  0  0  0
   12.4072   -3.5419   24.5341 N   0  0  0  0  0  0  0  0  0  0  0  0
   12.7485   -2.2369   24.8107 C   0  0  0  0  0  0  0  0  0  0  0  0
   13.4709   -1.6875   23.8621 N   0  0  0  0  0  0  0  0  0  0  0  0
   13.5013   -2.6105   22.8523 C   0  0  0  0  0  0  0  0  0  0  0  0
   14.0845   -2.4979   21.5766 C   0  0  0  0  0  0  0  0  0  0  0  0
   13.9835   -3.5669   20.6877 C   0  0  0  0  0  0  0  0  0  0  0  0
   13.3484   -4.7393   21.0842 C   0  0  0  0  0  0  0  0  0  0  0  0
   12.7938   -4.8880   22.3667 C   0  0  0  0  0  0  0  0  0  0  0  0
   12.8496   -3.7876   23.2341 C   0  0  0  0  0  0  0  0  0  0  0  0
    5.1597   -5.0778   28.1504 C   0  0  0  0  0  0  0  0  0  0  0  0
    4.7167   -4.7369   29.4573 C   0  0  0  0  0  0  0  0  0  0  0  0
    1.6144   -4.1175   32.5267 H   0  0  0  0  0  0  0  0  0  0  0  0
    1.2042   -5.3843   31.3629 H   0  0  0  0  0  0  0  0  0  0  0  0
    1.1149   -3.6392   30.8984 H   0  0  0  0  0  0  0  0  0  0  0  0
    1.3327   -5.0611   29.0347 H   0  0  0  0  0  0  0  0  0  0  0  0
    2.0717   -5.6865   26.7797 H   0  0  0  0  0  0  0  0  0  0  0  0
    4.3412   -6.0728   25.2037 H   0  0  0  0  0  0  0  0  0  0  0  0
    6.7914   -5.8155   25.3423 H   0  0  0  0  0  0  0  0  0  0  0  0
    8.4591   -5.8159   27.7207 H   0  0  0  0  0  0  0  0  0  0  0  0
    7.8699   -4.7845   29.0121 H   0  0  0  0  0  0  0  0  0  0  0  0
    8.6278   -2.8894   28.0369 H   0  0  0  0  0  0  0  0  0  0  0  0
    7.9456   -3.2593   26.4791 H   0  0  0  0  0  0  0  0  0  0  0  0
   10.5747   -3.0221   26.8241 H   0  0  0  0  0  0  0  0  0  0  0  0
   12.4068   -5.4923   25.1284 H   0  0  0  0  0  0  0  0  0  0  0  0
   12.6678   -5.2246   27.5446 H   0  0  0  0  0  0  0  0  0  0  0  0
   12.6557   -3.4683   27.3902 H   0  0  0  0  0  0  0  0  0  0  0  0
   13.9518   -4.4062   26.6373 H   0  0  0  0  0  0  0  0  0  0  0  0
   12.5005   -1.7509   25.7439 H   0  0  0  0  0  0  0  0  0  0  0  0
   14.5844   -1.5778   21.2979 H   0  0  0  0  0  0  0  0  0  0  0  0
   14.4056   -3.4913   19.6893 H   0  0  0  0  0  0  0  0  0  0  0  0
   13.2879   -5.5555   20.3728 H   0  0  0  0  0  0  0  0  0  0  0  0
   12.3298   -5.8233   22.6550 H   0  0  0  0  0  0  0  0  0  0  0  0
    5.4470   -4.4636   30.2139 H   0  0  0  0  0  0  0  0  0  0  0  0
  1  2  1  0
  2  3  1  0
  3  4  2  0
  4  5  1  0
  5  6  2  0
  6  7  1  0
  7  8  1  0
  8  9  2  0
  9 10  1  0
 10 11  1  0
 11 12  1  0
 12 13  1  0
 13 14  2  0
 13 15  1  0
 15 16  1  0
 15 17  1  0
 17 18  1  0
 18 19  2  0
 19 20  1  0
 20 21  2  0
 21 22  1  0
 22 23  2  0
 23 24  1  0
 24 25  2  0
  9 26  1  0
 26 27  2  0
 27  3  1  0
 26  6  1  0
 25 17  1  0
 25 20  1  0
  1 28  1  0
  1 29  1  0
  1 30  1  0
  4 31  1  0
  5 32  1  0
  7 33  1  0
  8 34  1  0
 10 35  1  0
 10 36  1  0
 11 37  1  0
 11 38  1  0
 12 39  1  0
 15 40  1  0
 16 41  1  0
 16 42  1  0
 16 43  1  0
 18 44  1  0
 21 45  1  0
 22 46  1  0
 23 47  1  0
 24 48  1  0
 27 49  1  0
M  END
>  <Energy>  (757) 
62.702533735258271

>  <compound_id>  (757) 
8517

>  <target_id>  (757) 
1

>  <reference_id>  (757) 
40

>  <inspiration_ids>  (757) 
[40, 103]

>  <energy_score>  (757) 
-5.769640391409894

>  <distance_score>  (757) 
6.277394461941134

>  <path>  (757) 
/opt/xchem-fragalysis-2/maxwin/BulkDock/SCRATCH/511017/C8517-P40/C8517-P40.minimised.mol

>  <scratch_subdir>  (757) 
/opt/xchem-fragalysis-2/maxwin/BulkDock/SCRATCH/511017/C8517-P40

>  <fragmenstein_runtime>  (757) 
22.253072500228882

>  <fragmenstein_outcome>  (757) 
too moved

>  <fragmenstein_mode>  (757) 
expansion

>  <fragmenstein_error>  (757) 


$$$$
C8517-P103
     RDKit          3D

 49 52  0  0  0  0  0  0  0  0999 V2000
    1.5005   -4.8260   32.4007 C   0  0  0  0  0  0  0  0  0  0  0  0
    2.7213   -4.3346   31.8467 O   0  0  0  0  0  0  0  0  0  0  0  0
    2.6498   -3.7229   30.6200 C   0  0  0  0  0  0  0  0  0  0  0  0
    1.5006   -3.6509   29.8393 C   0  0  0  0  0  0  0  0  0  0  0  0
    1.5263   -3.0367   28.5867 C   0  0  0  0  0  0  0  0  0  0  0  0
    2.7375   -2.4982   28.1364 C   0  0  0  0  0  0  0  0  0  0  0  0
    3.0305   -1.9271   26.9227 N   0  0  0  0  0  0  0  0  0  0  0  0
    4.3351   -1.5201   26.8991 C   0  0  0  0  0  0  0  0  0  0  0  0
    4.9543   -1.8685   28.0886 C   0  0  0  0  0  0  0  0  0  0  0  0
    6.4500   -1.7164   28.3756 C   0  0  0  0  0  0  0  0  0  0  0  0
    7.1423   -0.4156   27.8631 C   0  0  0  0  0  0  0  0  0  0  0  0
    8.4852   -0.5816   27.2641 N   0  0  0  0  0  0  0  0  0  0  0  0
    9.5715    0.3798   27.0620 C   0  0  0  0  0  0  0  0  0  0  0  0
    9.6739    1.5285   27.4053 O   0  0  0  0  0  0  0  0  0  0  0  0
   10.8554   -0.1969   26.2713 C   0  0  0  0  0  0  0  0  0  0  0  0
   10.8781   -1.7170   26.1422 C   0  0  0  0  0  0  0  0  0  0  0  0
   11.2057    0.5114   24.9983 N   0  0  0  0  0  0  0  0  0  0  0  0
   10.5361    1.5858   24.4603 C   0  0  0  0  0  0  0  0  0  0  0  0
   11.0456    2.0047   23.3249 N   0  0  0  0  0  0  0  0  0  0  0  0
   12.1881    1.2735   23.1653 C   0  0  0  0  0  0  0  0  0  0  0  0
   13.1661    1.3871   22.1602 C   0  0  0  0  0  0  0  0  0  0  0  0
   14.2536    0.5122   22.1618 C   0  0  0  0  0  0  0  0  0  0  0  0
   14.3914   -0.4235   23.1842 C   0  0  0  0  0  0  0  0  0  0  0  0
   13.4537   -0.5147   24.2291 C   0  0  0  0  0  0  0  0  0  0  0  0
   12.3327    0.3333   24.1936 C   0  0  0  0  0  0  0  0  0  0  0  0
    3.9179   -2.5122   28.8876 C   0  0  0  0  0  0  0  0  0  0  0  0
    3.8561   -3.1521   30.1539 C   0  0  0  0  0  0  0  0  0  0  0  0
    1.7291   -5.2568   33.3799 H   0  0  0  0  0  0  0  0  0  0  0  0
    1.0719   -5.6126   31.7726 H   0  0  0  0  0  0  0  0  0  0  0  0
    0.7855   -4.0108   32.5542 H   0  0  0  0  0  0  0  0  0  0  0  0
    0.5586   -4.0768   30.1666 H   0  0  0  0  0  0  0  0  0  0  0  0
    0.6327   -2.9920   27.9724 H   0  0  0  0  0  0  0  0  0  0  0  0
    2.3947   -1.8848   26.1318 H   0  0  0  0  0  0  0  0  0  0  0  0
    4.7284   -1.0828   25.9914 H   0  0  0  0  0  0  0  0  0  0  0  0
    6.6059   -1.7814   29.4596 H   0  0  0  0  0  0  0  0  0  0  0  0
    6.9564   -2.5882   27.9450 H   0  0  0  0  0  0  0  0  0  0  0  0
    6.5394    0.0959   27.1092 H   0  0  0  0  0  0  0  0  0  0  0  0
    7.2515    0.2936   28.6917 H   0  0  0  0  0  0  0  0  0  0  0  0
    8.7718   -1.4831   26.9120 H   0  0  0  0  0  0  0  0  0  0  0  0
   11.6998    0.0651   26.9278 H   0  0  0  0  0  0  0  0  0  0  0  0
   10.0661   -2.0566   25.5039 H   0  0  0  0  0  0  0  0  0  0  0  0
   10.7599   -2.1923   27.1225 H   0  0  0  0  0  0  0  0  0  0  0  0
   11.8043   -2.1044   25.7186 H   0  0  0  0  0  0  0  0  0  0  0  0
    9.6827    2.0406   24.9425 H   0  0  0  0  0  0  0  0  0  0  0  0
   13.0629    2.1497   21.3963 H   0  0  0  0  0  0  0  0  0  0  0  0
   15.0001    0.5759   21.3757 H   0  0  0  0  0  0  0  0  0  0  0  0
   15.2487   -1.0927   23.1829 H   0  0  0  0  0  0  0  0  0  0  0  0
   13.6085   -1.2348   25.0227 H   0  0  0  0  0  0  0  0  0  0  0  0
    4.7476   -3.2087   30.7708 H   0  0  0  0  0  0  0  0  0  0  0  0
  1  2  1  0
  2  3  1  0
  3  4  2  0
  4  5  1  0
  5  6  2  0
  6  7  1  0
  7  8  1  0
  8  9  2  0
  9 10  1  0
 10 11  1  0
 11 12  1  0
 12 13  1  0
 13 14  2  0
 13 15  1  0
 15 16  1  0
 15 17  1  0
 17 18  1  0
 18 19  2  0
 19 20  1  0
 20 21  2  0
 21 22  1  0
 22 23  2  0
 23 24  1  0
 24 25  2  0
  9 26  1  0
 26 27  2  0
 27  3  1  0
 26  6  1  0
 25 17  1  0
 25 20  1  0
  1 28  1  0
  1 29  1  0
  1 30  1  0
  4 31  1  0
  5 32  1  0
  7 33  1  0
  8 34  1  0
 10 35  1  0
 10 36  1  0
 11 37  1  0
 11 38  1  0
 12 39  1  0
 15 40  1  0
 16 41  1  0
 16 42  1  0
 16 43  1  0
 18 44  1  0
 21 45  1  0
 22 46  1  0
 23 47  1  0
 24 48  1  0
 27 49  1  0
M  END
>  <Energy>  (758) 
67.507838842327516

>  <compound_id>  (758) 
8517

>  <target_id>  (758) 
1

>  <reference_id>  (758) 
103

>  <inspiration_ids>  (758) 
[40, 103]

>  <energy_score>  (758) 
-0.9643352843410185

>  <distance_score>  (758) 
6.468133860295699

>  <path>  (758) 
/opt/xchem-fragalysis-2/maxwin/BulkDock/SCRATCH/511017/C8517-P103/C8517-P103.minimised.mol

>  <scratch_subdir>  (758) 
/opt/xchem-fragalysis-2/maxwin/BulkDock/SCRATCH/511017/C8517-P103

>  <fragmenstein_runtime>  (758) 
27.221221923828125

>  <fragmenstein_outcome>  (758) 
too moved

>  <fragmenstein_mode>  (758) 
expansion

>  <fragmenstein_error>  (758) 


$$$$
C8518-P40
     RDKit          3D

 52 56  0  0  0  0  0  0  0  0999 V2000
    5.9948   -2.1854   20.7565 O   0  0  0  0  0  0  0  0  0  0  0  0
    6.5768   -2.9971   21.4328 C   0  0  0  0  0  0  0  0  0  0  0  0
    8.0076   -4.1290   20.6941 C   0  0  0  0  0  0  0  0  0  0  0  0
    9.9480   -4.9682   20.7034 C   0  0  0  0  0  0  0  0  0  0  0  0
   11.4773   -4.3888   21.2621 N   0  0  0  0  0  0  0  0  0  0  0  0
   11.8301   -3.9434   22.5191 C   0  0  0  0  0  0  0  0  0  0  0  0
   13.0933   -3.6071   22.6333 N   0  0  0  0  0  0  0  0  0  0  0  0
   13.6163   -3.7133   21.3865 C   0  0  0  0  0  0  0  0  0  0  0  0
   14.9013   -3.3471   20.9465 C   0  0  0  0  0  0  0  0  0  0  0  0
   15.2346   -3.4574   19.5958 C   0  0  0  0  0  0  0  0  0  0  0  0
   14.2935   -3.9138   18.6912 C   0  0  0  0  0  0  0  0  0  0  0  0
   13.0158   -4.2844   19.1213 C   0  0  0  0  0  0  0  0  0  0  0  0
   12.6759   -4.2167   20.4920 C   0  0  0  0  0  0  0  0  0  0  0  0
    6.3360   -3.3337   23.0648 N   0  0  0  0  0  0  0  0  0  0  0  0
    5.3280   -2.5722   24.2516 C   0  0  0  0  0  0  0  0  0  0  0  0
    4.8373   -3.6207   25.4194 C   0  0  0  0  0  0  0  0  0  0  0  0
    5.9596   -4.4631   26.0182 C   0  0  0  0  0  0  0  0  0  0  0  0
    6.9186   -4.1027   26.9492 C   0  0  0  0  0  0  0  0  0  0  0  0
    7.7687   -5.1876   27.3097 C   0  0  0  0  0  0  0  0  0  0  0  0
    7.4270   -6.3494   26.6568 C   0  0  0  0  0  0  0  0  0  0  0  0
    6.0993   -6.1287   25.6049 S   0  0  0  0  0  0  0  0  0  0  0  0
    4.0028   -3.0355   26.5589 C   0  0  0  0  0  0  0  0  0  0  0  0
    3.9120   -1.7134   26.9475 C   0  0  0  0  0  0  0  0  0  0  0  0
    3.0110   -1.6193   27.9749 N   0  0  0  0  0  0  0  0  0  0  0  0
    2.5312   -2.8616   28.3140 C   0  0  0  0  0  0  0  0  0  0  0  0
    1.6104   -3.2284   29.3048 C   0  0  0  0  0  0  0  0  0  0  0  0
    1.3061   -4.5839   29.4446 C   0  0  0  0  0  0  0  0  0  0  0  0
    1.8991   -5.5320   28.6175 C   0  0  0  0  0  0  0  0  0  0  0  0
    2.8064   -5.1455   27.6200 C   0  0  0  0  0  0  0  0  0  0  0  0
    3.1385   -3.7799   27.4586 C   0  0  0  0  0  0  0  0  0  0  0  0
    7.5605   -4.7143   21.5095 H   0  0  0  0  0  0  0  0  0  0  0  0
    7.3715   -4.5342   19.8756 H   0  0  0  0  0  0  0  0  0  0  0  0
   10.1327   -5.3785   19.6977 H   0  0  0  0  0  0  0  0  0  0  0  0
   10.2838   -5.9395   21.1167 H   0  0  0  0  0  0  0  0  0  0  0  0
   11.1623   -3.8509   23.3606 H   0  0  0  0  0  0  0  0  0  0  0  0
   15.6167   -2.9630   21.6655 H   0  0  0  0  0  0  0  0  0  0  0  0
   16.2264   -3.1726   19.2580 H   0  0  0  0  0  0  0  0  0  0  0  0
   14.5377   -3.9810   17.6342 H   0  0  0  0  0  0  0  0  0  0  0  0
   12.2879   -4.5259   18.3602 H   0  0  0  0  0  0  0  0  0  0  0  0
    6.9126   -4.1238   23.3354 H   0  0  0  0  0  0  0  0  0  0  0  0
    5.9873   -1.9387   24.8455 H   0  0  0  0  0  0  0  0  0  0  0  0
    4.5755   -1.9178   23.7935 H   0  0  0  0  0  0  0  0  0  0  0  0
    4.1409   -4.3245   24.9701 H   0  0  0  0  0  0  0  0  0  0  0  0
    7.0076   -3.0990   27.3471 H   0  0  0  0  0  0  0  0  0  0  0  0
    8.5860   -5.1160   28.0164 H   0  0  0  0  0  0  0  0  0  0  0  0
    7.8919   -7.3212   26.7471 H   0  0  0  0  0  0  0  0  0  0  0  0
    4.3889   -0.8213   26.5615 H   0  0  0  0  0  0  0  0  0  0  0  0
    2.7348   -0.7575   28.4251 H   0  0  0  0  0  0  0  0  0  0  0  0
    1.1481   -2.4848   29.9469 H   0  0  0  0  0  0  0  0  0  0  0  0
    0.5995   -4.8919   30.2109 H   0  0  0  0  0  0  0  0  0  0  0  0
    1.6565   -6.5813   28.7409 H   0  0  0  0  0  0  0  0  0  0  0  0
    3.2651   -5.8954   26.9819 H   0  0  0  0  0  0  0  0  0  0  0  0
  1  2  2  0
  2  3  1  0
  3  4  1  0
  4  5  1  0
  5  6  1  0
  6  7  2  0
  7  8  1  0
  8  9  2  0
  9 10  1  0
 10 11  2  0
 11 12  1  0
 12 13  2  0
  2 14  1  0
 14 15  1  0
 15 16  1  0
 16 17  1  0
 17 18  2  0
 18 19  1  0
 19 20  2  0
 20 21  1  0
 16 22  1  0
 22 23  2  0
 23 24  1  0
 24 25  1  0
 25 26  2  0
 26 27  1  0
 27 28  2  0
 28 29  1  0
 29 30  2  0
 13  5  1  0
 21 17  1  0
 30 22  1  0
 13  8  1  0
 30 25  1  0
  3 31  1  0
  3 32  1  0
  4 33  1  0
  4 34  1  0
  6 35  1  0
  9 36  1  0
 10 37  1  0
 11 38  1  0
 12 39  1  0
 14 40  1  0
 15 41  1  0
 15 42  1  0
 16 43  1  0
 18 44  1  0
 19 45  1  0
 20 46  1  0
 23 47  1  0
 24 48  1  0
 26 49  1  0
 27 50  1  0
 28 51  1  0
 29 52  1  0
M  END
>  <Energy>  (759) 
328.0945306236685

>  <compound_id>  (759) 
8518

>  <target_id>  (759) 
1

>  <reference_id>  (759) 
40

>  <inspiration_ids>  (759) 
[40, 103]

>  <energy_score>  (759) 
257.1719112603112

>  <distance_score>  (759) 
5.482535750181729

>  <path>  (759) 
/opt/xchem-fragalysis-2/maxwin/BulkDock/SCRATCH/511017/C8518-P40/C8518-P40.minimised.mol

>  <scratch_subdir>  (759) 
/opt/xchem-fragalysis-2/maxwin/BulkDock/SCRATCH/511017/C8518-P40

>  <fragmenstein_runtime>  (759) 
19.469870805740356

>  <fragmenstein_outcome>  (759) 
too moved

>  <fragmenstein_mode>  (759) 
expansion

>  <fragmenstein_error>  (759) 


$$$$
C8518-P103
     RDKit          3D

 52 56  0  0  0  0  0  0  0  0999 V2000
    4.5682   -0.1612   21.9777 O   0  0  0  0  0  0  0  0  0  0  0  0
    5.5925   -1.3778   22.1179 C   0  0  0  0  0  0  0  0  0  0  0  0
    6.9961   -1.1585   20.8034 C   0  0  0  0  0  0  0  0  0  0  0  0
    8.5088   -0.1276   20.9599 C   0  0  0  0  0  0  0  0  0  0  0  0
    9.6278    0.4973   22.4813 N   0  0  0  0  0  0  0  0  0  0  0  0
    9.6463    1.9916   22.7093 C   0  0  0  0  0  0  0  0  0  0  0  0
   10.6786    2.5350   22.0897 N   0  0  0  0  0  0  0  0  0  0  0  0
   11.6306    1.6228   22.3986 C   0  0  0  0  0  0  0  0  0  0  0  0
   13.0232    1.7537   22.3704 C   0  0  0  0  0  0  0  0  0  0  0  0
   13.7736    0.8518   23.1206 C   0  0  0  0  0  0  0  0  0  0  0  0
   13.1322   -0.0735   23.9431 C   0  0  0  0  0  0  0  0  0  0  0  0
   11.7340   -0.2327   23.9257 C   0  0  0  0  0  0  0  0  0  0  0  0
   11.0105    0.4755   22.9328 C   0  0  0  0  0  0  0  0  0  0  0  0
    5.2272   -1.8903   23.0253 N   0  0  0  0  0  0  0  0  0  0  0  0
    4.0456   -1.7771   24.3627 C   0  0  0  0  0  0  0  0  0  0  0  0
    3.9998   -0.6587   25.6327 C   0  0  0  0  0  0  0  0  0  0  0  0
    5.1896   -0.3172   26.5698 C   0  0  0  0  0  0  0  0  0  0  0  0
    5.4252    0.9433   27.1234 C   0  0  0  0  0  0  0  0  0  0  0  0
    6.5348    0.9877   28.0127 C   0  0  0  0  0  0  0  0  0  0  0  0
    7.1048   -0.2512   28.1622 C   0  0  0  0  0  0  0  0  0  0  0  0
    6.2760   -1.4378   27.2671 S   0  0  0  0  0  0  0  0  0  0  0  0
    2.8063   -0.7615   26.6907 C   0  0  0  0  0  0  0  0  0  0  0  0
    2.0299    0.3429   27.0496 C   0  0  0  0  0  0  0  0  0  0  0  0
    1.0376   -0.0478   27.9007 N   0  0  0  0  0  0  0  0  0  0  0  0
    1.3069   -1.2999   28.3758 C   0  0  0  0  0  0  0  0  0  0  0  0
    0.6556   -2.0251   29.3852 C   0  0  0  0  0  0  0  0  0  0  0  0
    1.2545   -3.2000   29.8283 C   0  0  0  0  0  0  0  0  0  0  0  0
    2.4634   -3.6058   29.2845 C   0  0  0  0  0  0  0  0  0  0  0  0
    3.0565   -2.8867   28.2308 C   0  0  0  0  0  0  0  0  0  0  0  0
    2.4606   -1.7305   27.7130 C   0  0  0  0  0  0  0  0  0  0  0  0
    7.0429   -1.1233   19.7128 H   0  0  0  0  0  0  0  0  0  0  0  0
    6.5589   -0.1962   20.7229 H   0  0  0  0  0  0  0  0  0  0  0  0
    9.1110   -0.5553   20.2170 H   0  0  0  0  0  0  0  0  0  0  0  0
    7.9981    0.8996   20.8423 H   0  0  0  0  0  0  0  0  0  0  0  0
    9.3574    2.3667   23.6848 H   0  0  0  0  0  0  0  0  0  0  0  0
   13.4864    2.5980   21.8734 H   0  0  0  0  0  0  0  0  0  0  0  0
   14.8559    0.9403   23.1463 H   0  0  0  0  0  0  0  0  0  0  0  0
   13.7247   -0.7056   24.6006 H   0  0  0  0  0  0  0  0  0  0  0  0
   11.2778   -0.9824   24.5610 H   0  0  0  0  0  0  0  0  0  0  0  0
    5.2658   -2.5394   23.7453 H   0  0  0  0  0  0  0  0  0  0  0  0
    4.2012   -2.7032   24.9497 H   0  0  0  0  0  0  0  0  0  0  0  0
    3.0869   -2.0354   23.9348 H   0  0  0  0  0  0  0  0  0  0  0  0
    3.7964    0.2834   25.1117 H   0  0  0  0  0  0  0  0  0  0  0  0
    4.8103    1.8044   26.8934 H   0  0  0  0  0  0  0  0  0  0  0  0
    6.8833    1.8759   28.5238 H   0  0  0  0  0  0  0  0  0  0  0  0
    7.9513   -0.5234   28.7764 H   0  0  0  0  0  0  0  0  0  0  0  0
    2.0577    1.3611   26.6834 H   0  0  0  0  0  0  0  0  0  0  0  0
    0.3007    0.5475   28.2495 H   0  0  0  0  0  0  0  0  0  0  0  0
   -0.2510   -1.6543   29.8510 H   0  0  0  0  0  0  0  0  0  0  0  0
    0.8039   -3.7691   30.6372 H   0  0  0  0  0  0  0  0  0  0  0  0
    2.9640   -4.4771   29.6952 H   0  0  0  0  0  0  0  0  0  0  0  0
    4.0276   -3.1530   27.8435 H   0  0  0  0  0  0  0  0  0  0  0  0
  1  2  2  0
  2  3  1  0
  3  4  1  0
  4  5  1  0
  5  6  1  0
  6  7  2  0
  7  8  1  0
  8  9  2  0
  9 10  1  0
 10 11  2  0
 11 12  1  0
 12 13  2  0
  2 14  1  0
 14 15  1  0
 15 16  1  0
 16 17  1  0
 17 18  2  0
 18 19  1  0
 19 20  2  0
 20 21  1  0
 16 22  1  0
 22 23  2  0
 23 24  1  0
 24 25  1  0
 25 26  2  0
 26 27  1  0
 27 28  2  0
 28 29  1  0
 29 30  2  0
 13  5  1  0
 21 17  1  0
 30 22  1  0
 13  8  1  0
 30 25  1  0
  3 31  1  0
  3 32  1  0
  4 33  1  0
  4 34  1  0
  6 35  1  0
  9 36  1  0
 10 37  1  0
 11 38  1  0
 12 39  1  0
 14 40  1  0
 15 41  1  0
 15 42  1  0
 16 43  1  0
 18 44  1  0
 19 45  1  0
 20 46  1  0
 23 47  1  0
 24 48  1  0
 26 49  1  0
 27 50  1  0
 28 51  1  0
 29 52  1  0
M  END
>  <Energy>  (760) 
594.48753133887055

>  <compound_id>  (760) 
8518

>  <target_id>  (760) 
1

>  <reference_id>  (760) 
103

>  <inspiration_ids>  (760) 
[40, 103]

>  <energy_score>  (760) 
523.5649119755165

>  <distance_score>  (760) 
6.400658086579685

>  <path>  (760) 
/opt/xchem-fragalysis-2/maxwin/BulkDock/SCRATCH/511017/C8518-P103/C8518-P103.minimised.mol

>  <scratch_subdir>  (760) 
/opt/xchem-fragalysis-2/maxwin/BulkDock/SCRATCH/511017/C8518-P103

>  <fragmenstein_runtime>  (760) 
16.514727354049683

>  <fragmenstein_outcome>  (760) 
too moved

>  <fragmenstein_mode>  (760) 
expansion

>  <fragmenstein_error>  (760) 


$$$$
C87529-P123
     RDKit          3D

 43 44  0  0  0  0  0  0  0  0999 V2000
  -14.5881  -24.1267   24.7216 C   0  0  0  0  0  0  0  0  0  0  0  0
  -14.4621  -22.7872   24.0090 C   0  0  0  0  0  0  0  0  0  0  0  0
  -13.3179  -22.6719   23.1526 O   0  0  0  0  0  0  0  0  0  0  0  0
  -12.2471  -21.9148   23.5226 C   0  0  0  0  0  0  0  0  0  0  0  0
  -12.2009  -20.7694   23.9128 O   0  0  0  0  0  0  0  0  0  0  0  0
  -11.0514  -22.7019   23.5036 C   0  0  0  0  0  0  0  0  0  0  0  0
  -11.2106  -23.5543   24.5300 C   0  0  0  0  0  0  0  0  0  0  0  0
   -9.9909  -24.2672   24.8897 C   0  0  0  0  0  0  0  0  0  0  0  0
   -8.4435  -23.7520   23.9010 C   0  0  0  0  0  0  0  0  0  0  0  0
   -9.1525  -24.0480   22.8217 N   0  0  0  0  0  0  0  0  0  0  0  0
   -8.6470  -24.3904   21.1788 C   0  0  0  0  0  0  0  0  0  0  0  0
   -7.5295  -24.3000   20.7864 O   0  0  0  0  0  0  0  0  0  0  0  0
  -10.4956  -24.8186   19.9956 C   0  0  0  0  0  0  0  0  0  0  0  0
  -10.3735  -26.1747   20.4659 N   0  0  0  0  0  0  0  0  0  0  0  0
  -11.5191  -25.7744   18.2509 C   0  0  0  0  0  0  0  0  0  0  0  0
  -11.6739  -25.9860   16.5154 C   0  0  0  0  0  0  0  0  0  0  0  0
  -10.6654  -26.3409   15.6067 C   0  0  0  0  0  0  0  0  0  0  0  0
  -10.9570  -26.5026   14.2470 C   0  0  0  0  0  0  0  0  0  0  0  0
  -12.2646  -26.3638   13.8226 C   0  0  0  0  0  0  0  0  0  0  0  0
  -13.2884  -26.1093   14.6600 N   0  0  0  0  0  0  0  0  0  0  0  0
  -12.9753  -25.9532   15.9731 C   0  0  0  0  0  0  0  0  0  0  0  0
   -9.5964  -22.5250   22.9407 C   0  0  0  0  0  0  0  0  0  0  0  0
  -14.4476  -24.9612   24.0318 H   0  0  0  0  0  0  0  0  0  0  0  0
  -15.5985  -24.2395   25.1283 H   0  0  0  0  0  0  0  0  0  0  0  0
  -13.8844  -24.2547   25.5423 H   0  0  0  0  0  0  0  0  0  0  0  0
  -15.3461  -22.7345   23.4187 H   0  0  0  0  0  0  0  0  0  0  0  0
  -14.7123  -21.8954   24.5397 H   0  0  0  0  0  0  0  0  0  0  0  0
  -12.0632  -23.6339   25.1821 H   0  0  0  0  0  0  0  0  0  0  0  0
  -10.3719  -25.2676   24.6673 H   0  0  0  0  0  0  0  0  0  0  0  0
   -9.8588  -24.1843   25.9860 H   0  0  0  0  0  0  0  0  0  0  0  0
   -7.5992  -24.3707   24.1690 H   0  0  0  0  0  0  0  0  0  0  0  0
   -7.8712  -22.8546   23.7745 H   0  0  0  0  0  0  0  0  0  0  0  0
  -11.4491  -24.3274   20.3052 H   0  0  0  0  0  0  0  0  0  0  0  0
   -9.4588  -26.2832   20.1336 H   0  0  0  0  0  0  0  0  0  0  0  0
  -10.8385  -26.9629   20.0448 H   0  0  0  0  0  0  0  0  0  0  0  0
  -11.2843  -26.8523   18.1616 H   0  0  0  0  0  0  0  0  0  0  0  0
  -12.6877  -25.6575   18.3769 H   0  0  0  0  0  0  0  0  0  0  0  0
   -9.6313  -26.4699   15.8978 H   0  0  0  0  0  0  0  0  0  0  0  0
  -10.1663  -26.7303   13.5394 H   0  0  0  0  0  0  0  0  0  0  0  0
  -12.5297  -26.4729   12.7757 H   0  0  0  0  0  0  0  0  0  0  0  0
  -13.8415  -25.7608   16.6012 H   0  0  0  0  0  0  0  0  0  0  0  0
   -9.9488  -22.2391   21.9224 H   0  0  0  0  0  0  0  0  0  0  0  0
   -8.9186  -21.7081   22.8741 H   0  0  0  0  0  0  0  0  0  0  0  0
  1  2  1  0
  2  3  1  0
  3  4  1  0
  4  5  2  0
  4  6  1  0
  6  7  2  0
  7  8  1  0
  8  9  1  0
  9 10  1  0
 10 11  1  0
 11 12  2  0
 11 13  1  0
 13 14  1  0
 13 15  1  0
 15 16  1  0
 16 17  2  0
 17 18  1  0
 18 19  2  0
 19 20  1  0
 20 21  2  0
 10 22  1  0
 22  6  1  0
 21 16  1  0
  1 23  1  0
  1 24  1  0
  1 25  1  0
  2 26  1  0
  2 27  1  0
  7 28  1  0
  8 29  1  0
  8 30  1  0
  9 31  1  0
  9 32  1  0
 13 33  1  0
 14 34  1  0
 14 35  1  0
 15 36  1  0
 15 37  1  0
 17 38  1  0
 18 39  1  0
 19 40  1  0
 21 41  1  0
 22 42  1  0
 22 43  1  0
M  END
>  <Energy>  (761) 
683.63090303655622

>  <compound_id>  (761) 
87529

>  <target_id>  (761) 
1

>  <reference_id>  (761) 
123

>  <inspiration_ids>  (761) 
[123, 48]

>  <energy_score>  (761) 
577.9041011337947

>  <distance_score>  (761) 
7.418386309701722

>  <path>  (761) 
/opt/xchem-fragalysis-2/maxwin/BulkDock/SCRATCH/511017/C87529-P123/C87529-P123.minimised.mol

>  <scratch_subdir>  (761) 
/opt/xchem-fragalysis-2/maxwin/BulkDock/SCRATCH/511017/C87529-P123

>  <fragmenstein_runtime>  (761) 
15.15355634689331

>  <fragmenstein_outcome>  (761) 
too moved

>  <fragmenstein_mode>  (761) 
expansion

>  <fragmenstein_error>  (761) 


$$$$
C87529-P48
     RDKit          3D

 43 44  0  0  0  0  0  0  0  0999 V2000
  -13.2970  -29.4756   30.5793 C   0  0  0  0  0  0  0  0  0  0  0  0
  -14.5865  -29.5839   29.7808 C   0  0  0  0  0  0  0  0  0  0  0  0
  -14.5837  -28.5331   28.8086 O   0  0  0  0  0  0  0  0  0  0  0  0
  -13.8962  -28.8016   27.6763 C   0  0  0  0  0  0  0  0  0  0  0  0
  -13.6640  -29.9036   27.2061 O   0  0  0  0  0  0  0  0  0  0  0  0
  -13.3420  -27.5501   27.0984 C   0  0  0  0  0  0  0  0  0  0  0  0
  -13.3169  -26.4207   27.8109 C   0  0  0  0  0  0  0  0  0  0  0  0
  -12.4959  -25.3518   27.2184 C   0  0  0  0  0  0  0  0  0  0  0  0
  -11.5018  -26.1433   26.4171 C   0  0  0  0  0  0  0  0  0  0  0  0
  -11.7390  -26.6098   25.0131 N   0  0  0  0  0  0  0  0  0  0  0  0
  -10.6607  -27.3464   23.7755 C   0  0  0  0  0  0  0  0  0  0  0  0
   -9.5835  -27.5635   24.2613 O   0  0  0  0  0  0  0  0  0  0  0  0
  -10.6223  -27.7644   21.6098 C   0  0  0  0  0  0  0  0  0  0  0  0
  -10.1956  -26.2012   21.0075 N   0  0  0  0  0  0  0  0  0  0  0  0
  -11.8469  -28.1373   19.8370 C   0  0  0  0  0  0  0  0  0  0  0  0
  -12.1746  -27.3221   18.3585 C   0  0  0  0  0  0  0  0  0  0  0  0
  -13.4791  -26.8116   18.1627 C   0  0  0  0  0  0  0  0  0  0  0  0
  -13.9015  -26.3204   16.9193 C   0  0  0  0  0  0  0  0  0  0  0  0
  -13.0167  -26.3487   15.8624 C   0  0  0  0  0  0  0  0  0  0  0  0
  -11.7639  -26.8109   15.9825 N   0  0  0  0  0  0  0  0  0  0  0  0
  -11.3783  -27.2836   17.2063 C   0  0  0  0  0  0  0  0  0  0  0  0
  -12.5434  -27.6902   25.7959 C   0  0  0  0  0  0  0  0  0  0  0  0
  -12.4222  -29.6369   29.9410 H   0  0  0  0  0  0  0  0  0  0  0  0
  -13.2799  -30.2158   31.3843 H   0  0  0  0  0  0  0  0  0  0  0  0
  -13.1951  -28.4766   31.0162 H   0  0  0  0  0  0  0  0  0  0  0  0
  -15.4488  -29.4245   30.4358 H   0  0  0  0  0  0  0  0  0  0  0  0
  -14.6975  -30.5704   29.3177 H   0  0  0  0  0  0  0  0  0  0  0  0
  -13.7416  -26.3103   28.8060 H   0  0  0  0  0  0  0  0  0  0  0  0
  -11.9880  -24.7901   28.0095 H   0  0  0  0  0  0  0  0  0  0  0  0
  -13.0509  -24.6561   26.5857 H   0  0  0  0  0  0  0  0  0  0  0  0
  -10.8866  -26.8495   27.0085 H   0  0  0  0  0  0  0  0  0  0  0  0
  -10.7276  -25.3862   26.2059 H   0  0  0  0  0  0  0  0  0  0  0  0
  -10.0979  -28.6640   21.5224 H   0  0  0  0  0  0  0  0  0  0  0  0
   -9.4008  -25.7131   21.3436 H   0  0  0  0  0  0  0  0  0  0  0  0
  -11.0142  -25.5800   21.0352 H   0  0  0  0  0  0  0  0  0  0  0  0
  -12.9261  -28.1793   19.9913 H   0  0  0  0  0  0  0  0  0  0  0  0
  -11.7026  -29.1983   19.4927 H   0  0  0  0  0  0  0  0  0  0  0  0
  -14.1959  -26.8076   18.9793 H   0  0  0  0  0  0  0  0  0  0  0  0
  -14.9073  -25.9380   16.7847 H   0  0  0  0  0  0  0  0  0  0  0  0
  -13.2929  -25.9894   14.8764 H   0  0  0  0  0  0  0  0  0  0  0  0
  -10.3564  -27.6285   17.1725 H   0  0  0  0  0  0  0  0  0  0  0  0
  -11.8733  -28.4672   25.9789 H   0  0  0  0  0  0  0  0  0  0  0  0
  -13.3600  -27.8330   25.0989 H   0  0  0  0  0  0  0  0  0  0  0  0
  1  2  1  0
  2  3  1  0
  3  4  1  0
  4  5  2  0
  4  6  1  0
  6  7  2  0
  7  8  1  0
  8  9  1  0
  9 10  1  0
 10 11  1  0
 11 12  2  0
 11 13  1  0
 13 14  1  0
 13 15  1  0
 15 16  1  0
 16 17  2  0
 17 18  1  0
 18 19  2  0
 19 20  1  0
 20 21  2  0
 10 22  1  0
 22  6  1  0
 21 16  1  0
  1 23  1  0
  1 24  1  0
  1 25  1  0
  2 26  1  0
  2 27  1  0
  7 28  1  0
  8 29  1  0
  8 30  1  0
  9 31  1  0
  9 32  1  0
 13 33  1  0
 14 34  1  0
 14 35  1  0
 15 36  1  0
 15 37  1  0
 17 38  1  0
 18 39  1  0
 19 40  1  0
 21 41  1  0
 22 42  1  0
 22 43  1  0
M  END
>  <Energy>  (762) 
566.00907773808422

>  <compound_id>  (762) 
87529

>  <target_id>  (762) 
1

>  <reference_id>  (762) 
48

>  <inspiration_ids>  (762) 
[123, 48]

>  <energy_score>  (762) 
460.2822758353124

>  <distance_score>  (762) 
7.596920478759707

>  <path>  (762) 
/opt/xchem-fragalysis-2/maxwin/BulkDock/SCRATCH/511017/C87529-P48/C87529-P48.minimised.mol

>  <scratch_subdir>  (762) 
/opt/xchem-fragalysis-2/maxwin/BulkDock/SCRATCH/511017/C87529-P48

>  <fragmenstein_runtime>  (762) 
11.039072513580322

>  <fragmenstein_outcome>  (762) 
too moved

>  <fragmenstein_mode>  (762) 
expansion

>  <fragmenstein_error>  (762) 


$$$$
C87530-P123
     RDKit          3D

 41 42  0  0  0  0  0  0  0  0999 V2000
  -12.0634  -24.5481   29.1143 C   0  0  0  0  0  0  0  0  0  0  0  0
  -12.8217  -24.8212   27.8337 C   0  0  0  0  0  0  0  0  0  0  0  0
  -12.1681  -25.8716   27.1154 O   0  0  0  0  0  0  0  0  0  0  0  0
  -12.5760  -27.1471   27.3117 C   0  0  0  0  0  0  0  0  0  0  0  0
  -13.4993  -27.5213   28.0155 O   0  0  0  0  0  0  0  0  0  0  0  0
  -11.6617  -28.0524   26.5674 C   0  0  0  0  0  0  0  0  0  0  0  0
  -11.5729  -29.3658   26.8736 C   0  0  0  0  0  0  0  0  0  0  0  0
  -10.4990  -30.1557   25.9928 C   0  0  0  0  0  0  0  0  0  0  0  0
   -9.9204  -29.3091   24.7210 C   0  0  0  0  0  0  0  0  0  0  0  0
  -10.3812  -27.7391   24.0875 N   0  0  0  0  0  0  0  0  0  0  0  0
  -11.4934  -27.8435   22.6893 C   0  0  0  0  0  0  0  0  0  0  0  0
  -12.6250  -27.8305   23.0717 O   0  0  0  0  0  0  0  0  0  0  0  0
  -11.0933  -27.8091   20.5272 C   0  0  0  0  0  0  0  0  0  0  0  0
  -11.9943  -27.7921   18.5294 C   0  0  0  0  0  0  0  0  0  0  0  0
  -13.1398  -27.3701   17.4903 C   0  0  0  0  0  0  0  0  0  0  0  0
  -13.2465  -28.1266   16.2949 C   0  0  0  0  0  0  0  0  0  0  0  0
  -13.9806  -27.6661   15.2001 C   0  0  0  0  0  0  0  0  0  0  0  0
  -14.6023  -26.4408   15.3089 C   0  0  0  0  0  0  0  0  0  0  0  0
  -14.5379  -25.6803   16.4191 N   0  0  0  0  0  0  0  0  0  0  0  0
  -13.8038  -26.1569   17.4636 C   0  0  0  0  0  0  0  0  0  0  0  0
  -10.6109  -27.5198   25.6378 C   0  0  0  0  0  0  0  0  0  0  0  0
  -12.0459  -25.4345   29.7562 H   0  0  0  0  0  0  0  0  0  0  0  0
  -11.0203  -24.2960   28.8961 H   0  0  0  0  0  0  0  0  0  0  0  0
  -12.5170  -23.7204   29.6667 H   0  0  0  0  0  0  0  0  0  0  0  0
  -12.7894  -23.9324   27.1957 H   0  0  0  0  0  0  0  0  0  0  0  0
  -13.8734  -25.0539   28.0096 H   0  0  0  0  0  0  0  0  0  0  0  0
  -12.2038  -29.8770   27.5978 H   0  0  0  0  0  0  0  0  0  0  0  0
   -9.6509  -30.5410   26.5599 H   0  0  0  0  0  0  0  0  0  0  0  0
  -10.9287  -31.1131   25.6583 H   0  0  0  0  0  0  0  0  0  0  0  0
   -8.9363  -29.1023   25.1907 H   0  0  0  0  0  0  0  0  0  0  0  0
   -9.5310  -29.8910   23.8743 H   0  0  0  0  0  0  0  0  0  0  0  0
  -10.4626  -27.1939   19.9290 H   0  0  0  0  0  0  0  0  0  0  0  0
  -10.7803  -26.8011   20.9251 H   0  0  0  0  0  0  0  0  0  0  0  0
  -11.3281  -27.0889   17.9312 H   0  0  0  0  0  0  0  0  0  0  0  0
  -11.9085  -28.8607   18.1276 H   0  0  0  0  0  0  0  0  0  0  0  0
  -12.7058  -29.0651   16.1841 H   0  0  0  0  0  0  0  0  0  0  0  0
  -14.0433  -28.2426   14.2846 H   0  0  0  0  0  0  0  0  0  0  0  0
  -15.1817  -26.0250   14.4906 H   0  0  0  0  0  0  0  0  0  0  0  0
  -13.7262  -25.4700   18.2974 H   0  0  0  0  0  0  0  0  0  0  0  0
  -10.8580  -26.4590   25.5437 H   0  0  0  0  0  0  0  0  0  0  0  0
   -9.6567  -27.5199   26.1704 H   0  0  0  0  0  0  0  0  0  0  0  0
  1  2  1  0
  2  3  1  0
  3  4  1  0
  4  5  2  0
  4  6  1  0
  6  7  2  0
  7  8  1  0
  8  9  1  0
  9 10  1  0
 10 11  1  0
 11 12  2  0
 11 13  1  0
 13 14  1  0
 14 15  1  0
 15 16  2  0
 16 17  1  0
 17 18  2  0
 18 19  1  0
 19 20  2  0
 10 21  1  0
 21  6  1  0
 20 15  1  0
  1 22  1  0
  1 23  1  0
  1 24  1  0
  2 25  1  0
  2 26  1  0
  7 27  1  0
  8 28  1  0
  8 29  1  0
  9 30  1  0
  9 31  1  0
 13 32  1  0
 13 33  1  0
 14 34  1  0
 14 35  1  0
 16 36  1  0
 17 37  1  0
 18 38  1  0
 20 39  1  0
 21 40  1  0
 21 41  1  0
M  END
>  <Energy>  (763) 
591.84241490175634

>  <compound_id>  (763) 
87530

>  <target_id>  (763) 
1

>  <reference_id>  (763) 
123

>  <inspiration_ids>  (763) 
[123, 48]

>  <energy_score>  (763) 
558.4442306333887

>  <distance_score>  (763) 
7.155651305381597

>  <path>  (763) 
/opt/xchem-fragalysis-2/maxwin/BulkDock/SCRATCH/511017/C87530-P123/C87530-P123.minimised.mol

>  <scratch_subdir>  (763) 
/opt/xchem-fragalysis-2/maxwin/BulkDock/SCRATCH/511017/C87530-P123

>  <fragmenstein_runtime>  (763) 
8.433125495910645

>  <fragmenstein_outcome>  (763) 
too moved

>  <fragmenstein_mode>  (763) 
expansion

>  <fragmenstein_error>  (763) 


$$$$
C87530-P48
     RDKit          3D

 41 42  0  0  0  0  0  0  0  0999 V2000
  -14.1567  -27.4384   30.1897 C   0  0  0  0  0  0  0  0  0  0  0  0
  -14.8090  -27.8079   28.8707 C   0  0  0  0  0  0  0  0  0  0  0  0
  -14.0895  -27.1341   27.8306 O   0  0  0  0  0  0  0  0  0  0  0  0
  -13.0361  -27.8150   27.3109 C   0  0  0  0  0  0  0  0  0  0  0  0
  -12.8217  -29.0120   27.3930 O   0  0  0  0  0  0  0  0  0  0  0  0
  -12.1222  -26.8739   26.6301 C   0  0  0  0  0  0  0  0  0  0  0  0
  -12.1063  -25.5765   26.9965 C   0  0  0  0  0  0  0  0  0  0  0  0
  -11.0120  -24.7526   26.4227 C   0  0  0  0  0  0  0  0  0  0  0  0
  -10.0532  -25.8164   25.6665 C   0  0  0  0  0  0  0  0  0  0  0  0
  -11.0060  -26.3925   24.3644 N   0  0  0  0  0  0  0  0  0  0  0  0
  -10.5092  -26.7795   22.4430 C   0  0  0  0  0  0  0  0  0  0  0  0
  -10.1326  -27.7818   21.9273 O   0  0  0  0  0  0  0  0  0  0  0  0
  -10.8198  -25.3311   20.9671 C   0  0  0  0  0  0  0  0  0  0  0  0
  -11.7873  -25.9237   19.1469 C   0  0  0  0  0  0  0  0  0  0  0  0
  -11.9098  -26.2361   17.5044 C   0  0  0  0  0  0  0  0  0  0  0  0
  -13.1920  -26.0588   16.9220 C   0  0  0  0  0  0  0  0  0  0  0  0
  -13.4239  -26.2921   15.5627 C   0  0  0  0  0  0  0  0  0  0  0  0
  -12.3750  -26.7424   14.7923 C   0  0  0  0  0  0  0  0  0  0  0  0
  -11.1575  -26.9992   15.3003 N   0  0  0  0  0  0  0  0  0  0  0  0
  -10.9581  -26.7627   16.6305 C   0  0  0  0  0  0  0  0  0  0  0  0
  -11.1060  -27.4182   25.5359 C   0  0  0  0  0  0  0  0  0  0  0  0
  -14.7030  -27.8790   31.0284 H   0  0  0  0  0  0  0  0  0  0  0  0
  -14.1314  -26.3509   30.3174 H   0  0  0  0  0  0  0  0  0  0  0  0
  -13.1198  -27.7883   30.2259 H   0  0  0  0  0  0  0  0  0  0  0  0
  -14.8357  -28.8926   28.7207 H   0  0  0  0  0  0  0  0  0  0  0  0
  -15.8406  -27.4432   28.8453 H   0  0  0  0  0  0  0  0  0  0  0  0
  -12.7144  -25.1396   27.7780 H   0  0  0  0  0  0  0  0  0  0  0  0
  -11.3912  -23.9464   25.7995 H   0  0  0  0  0  0  0  0  0  0  0  0
  -10.4466  -24.2850   27.2397 H   0  0  0  0  0  0  0  0  0  0  0  0
   -9.9951  -26.3115   26.6359 H   0  0  0  0  0  0  0  0  0  0  0  0
   -9.3294  -25.0563   25.3707 H   0  0  0  0  0  0  0  0  0  0  0  0
  -11.4657  -24.4372   20.9892 H   0  0  0  0  0  0  0  0  0  0  0  0
   -9.7075  -25.1544   20.8517 H   0  0  0  0  0  0  0  0  0  0  0  0
  -11.8740  -27.0502   19.1358 H   0  0  0  0  0  0  0  0  0  0  0  0
  -12.8192  -25.5270   19.3646 H   0  0  0  0  0  0  0  0  0  0  0  0
  -14.0232  -25.7094   17.5309 H   0  0  0  0  0  0  0  0  0  0  0  0
  -14.4008  -26.1232   15.1246 H   0  0  0  0  0  0  0  0  0  0  0  0
  -12.4886  -26.9321   13.7299 H   0  0  0  0  0  0  0  0  0  0  0  0
   -9.9555  -27.0250   16.9370 H   0  0  0  0  0  0  0  0  0  0  0  0
  -10.2866  -28.0482   25.8248 H   0  0  0  0  0  0  0  0  0  0  0  0
  -11.8359  -28.1031   25.1456 H   0  0  0  0  0  0  0  0  0  0  0  0
  1  2  1  0
  2  3  1  0
  3  4  1  0
  4  5  2  0
  4  6  1  0
  6  7  2  0
  7  8  1  0
  8  9  1  0
  9 10  1  0
 10 11  1  0
 11 12  2  0
 11 13  1  0
 13 14  1  0
 14 15  1  0
 15 16  2  0
 16 17  1  0
 17 18  2  0
 18 19  1  0
 19 20  2  0
 10 21  1  0
 21  6  1  0
 20 15  1  0
  1 22  1  0
  1 23  1  0
  1 24  1  0
  2 25  1  0
  2 26  1  0
  7 27  1  0
  8 28  1  0
  8 29  1  0
  9 30  1  0
  9 31  1  0
 13 32  1  0
 13 33  1  0
 14 34  1  0
 14 35  1  0
 16 36  1  0
 17 37  1  0
 18 38  1  0
 20 39  1  0
 21 40  1  0
 21 41  1  0
M  END
>  <Energy>  (764) 
559.14778432303456

>  <compound_id>  (764) 
87530

>  <target_id>  (764) 
1

>  <reference_id>  (764) 
48

>  <inspiration_ids>  (764) 
[123, 48]

>  <energy_score>  (764) 
525.7496000546614

>  <distance_score>  (764) 
7.01619319257856

>  <path>  (764) 
/opt/xchem-fragalysis-2/maxwin/BulkDock/SCRATCH/511017/C87530-P48/C87530-P48.minimised.mol

>  <scratch_subdir>  (764) 
/opt/xchem-fragalysis-2/maxwin/BulkDock/SCRATCH/511017/C87530-P48

>  <fragmenstein_runtime>  (764) 
8.404343366622925

>  <fragmenstein_outcome>  (764) 
too moved

>  <fragmenstein_mode>  (764) 
expansion

>  <fragmenstein_error>  (764) 


$$$$
C87531-P123
     RDKit          3D

 43 44  0  0  0  0  0  0  0  0999 V2000
  -12.4093  -23.5908   25.3599 C   0  0  0  0  0  0  0  0  0  0  0  0
  -13.5782  -24.5013   25.6647 C   0  0  0  0  0  0  0  0  0  0  0  0
  -14.8216  -24.1134   24.9929 O   0  0  0  0  0  0  0  0  0  0  0  0
  -15.8188  -24.9589   25.3809 C   0  0  0  0  0  0  0  0  0  0  0  0
  -15.6320  -25.7812   26.2817 O   0  0  0  0  0  0  0  0  0  0  0  0
  -17.1974  -24.7997   24.6575 C   0  0  0  0  0  0  0  0  0  0  0  0
  -18.1634  -25.1578   25.5294 C   0  0  0  0  0  0  0  0  0  0  0  0
  -18.1084  -26.6710   25.6362 C   0  0  0  0  0  0  0  0  0  0  0  0
  -17.0143  -27.2419   24.6255 C   0  0  0  0  0  0  0  0  0  0  0  0
  -16.5619  -26.7932   23.1837 N   0  0  0  0  0  0  0  0  0  0  0  0
  -15.2174  -26.1702   22.6942 C   0  0  0  0  0  0  0  0  0  0  0  0
  -14.2731  -25.8103   23.3078 O   0  0  0  0  0  0  0  0  0  0  0  0
  -15.4599  -26.2725   21.0629 N   0  0  0  0  0  0  0  0  0  0  0  0
  -14.3193  -25.8303   19.5672 C   0  0  0  0  0  0  0  0  0  0  0  0
  -15.6553  -26.5398   18.2493 C   0  0  0  0  0  0  0  0  0  0  0  0
  -13.7596  -25.9141   17.8754 C   0  0  0  0  0  0  0  0  0  0  0  0
  -13.0359  -26.9790   17.2727 C   0  0  0  0  0  0  0  0  0  0  0  0
  -12.8332  -27.0549   15.8846 C   0  0  0  0  0  0  0  0  0  0  0  0
  -13.3932  -26.0894   15.0790 C   0  0  0  0  0  0  0  0  0  0  0  0
  -14.0681  -25.0374   15.5721 N   0  0  0  0  0  0  0  0  0  0  0  0
  -14.1426  -24.9170   16.9316 C   0  0  0  0  0  0  0  0  0  0  0  0
  -17.5425  -25.7324   23.4242 C   0  0  0  0  0  0  0  0  0  0  0  0
  -12.5624  -23.0065   24.4487 H   0  0  0  0  0  0  0  0  0  0  0  0
  -11.4870  -24.1744   25.2676 H   0  0  0  0  0  0  0  0  0  0  0  0
  -12.2358  -22.9096   26.1970 H   0  0  0  0  0  0  0  0  0  0  0  0
  -13.7086  -24.5263   26.7548 H   0  0  0  0  0  0  0  0  0  0  0  0
  -13.3096  -25.5241   25.3754 H   0  0  0  0  0  0  0  0  0  0  0  0
  -19.1859  -24.8066   25.3840 H   0  0  0  0  0  0  0  0  0  0  0  0
  -19.0908  -27.0881   25.3769 H   0  0  0  0  0  0  0  0  0  0  0  0
  -17.8886  -26.9933   26.6597 H   0  0  0  0  0  0  0  0  0  0  0  0
  -17.4289  -28.2360   24.3806 H   0  0  0  0  0  0  0  0  0  0  0  0
  -16.0939  -27.5488   25.1391 H   0  0  0  0  0  0  0  0  0  0  0  0
  -16.3642  -26.7081   20.8764 H   0  0  0  0  0  0  0  0  0  0  0  0
  -14.0618  -24.7906   19.7617 H   0  0  0  0  0  0  0  0  0  0  0  0
  -15.3127  -27.4494   17.7166 H   0  0  0  0  0  0  0  0  0  0  0  0
  -16.0743  -25.8506   17.4925 H   0  0  0  0  0  0  0  0  0  0  0  0
  -16.5799  -26.9411   18.7162 H   0  0  0  0  0  0  0  0  0  0  0  0
  -12.6437  -27.8053   17.8361 H   0  0  0  0  0  0  0  0  0  0  0  0
  -12.2784  -27.8797   15.4501 H   0  0  0  0  0  0  0  0  0  0  0  0
  -13.2985  -26.1251   13.9984 H   0  0  0  0  0  0  0  0  0  0  0  0
  -14.6151  -23.9876   17.2439 H   0  0  0  0  0  0  0  0  0  0  0  0
  -18.5694  -26.1446   23.3777 H   0  0  0  0  0  0  0  0  0  0  0  0
  -17.5911  -25.0886   22.5457 H   0  0  0  0  0  0  0  0  0  0  0  0
  1  2  1  0
  2  3  1  0
  3  4  1  0
  4  5  2  0
  4  6  1  0
  6  7  2  0
  7  8  1  0
  8  9  1  0
  9 10  1  0
 10 11  1  0
 11 12  2  0
 11 13  1  0
 13 14  1  0
 14 15  1  0
 14 16  1  0
 16 17  2  0
 17 18  1  0
 18 19  2  0
 19 20  1  0
 20 21  2  0
 10 22  1  0
 22  6  1  0
 21 16  1  0
  1 23  1  0
  1 24  1  0
  1 25  1  0
  2 26  1  0
  2 27  1  0
  7 28  1  0
  8 29  1  0
  8 30  1  0
  9 31  1  0
  9 32  1  0
 13 33  1  0
 14 34  1  0
 15 35  1  0
 15 36  1  0
 15 37  1  0
 17 38  1  0
 18 39  1  0
 19 40  1  0
 21 41  1  0
 22 42  1  0
 22 43  1  0
M  END
>  <Energy>  (765) 
387.9238874129407

>  <compound_id>  (765) 
87531

>  <target_id>  (765) 
1

>  <reference_id>  (765) 
123

>  <inspiration_ids>  (765) 
[123, 48]

>  <energy_score>  (765) 
407.75747351248344

>  <distance_score>  (765) 
8.060569843613964

>  <path>  (765) 
/opt/xchem-fragalysis-2/maxwin/BulkDock/SCRATCH/511017/C87531-P123/C87531-P123.minimised.mol

>  <scratch_subdir>  (765) 
/opt/xchem-fragalysis-2/maxwin/BulkDock/SCRATCH/511017/C87531-P123

>  <fragmenstein_runtime>  (765) 
16.666346549987793

>  <fragmenstein_outcome>  (765) 
too moved

>  <fragmenstein_mode>  (765) 
expansion

>  <fragmenstein_error>  (765) 


$$$$
C87531-P48
     RDKit          3D

 43 44  0  0  0  0  0  0  0  0999 V2000
  -11.4040  -23.0711   28.3052 C   0  0  0  0  0  0  0  0  0  0  0  0
  -11.7775  -23.3511   26.8676 C   0  0  0  0  0  0  0  0  0  0  0  0
  -12.9350  -24.1532   26.6976 O   0  0  0  0  0  0  0  0  0  0  0  0
  -12.9118  -25.3369   27.3103 C   0  0  0  0  0  0  0  0  0  0  0  0
  -13.5851  -25.6621   28.2772 O   0  0  0  0  0  0  0  0  0  0  0  0
  -12.0829  -26.2796   26.6701 C   0  0  0  0  0  0  0  0  0  0  0  0
  -11.2420  -26.8549   27.5124 C   0  0  0  0  0  0  0  0  0  0  0  0
  -10.7129  -27.9156   26.7084 C   0  0  0  0  0  0  0  0  0  0  0  0
  -10.3724  -27.0868   25.2329 C   0  0  0  0  0  0  0  0  0  0  0  0
  -11.0488  -27.6196   23.9591 N   0  0  0  0  0  0  0  0  0  0  0  0
  -10.6646  -27.2757   21.9370 C   0  0  0  0  0  0  0  0  0  0  0  0
   -9.8859  -26.5003   21.7961 O   0  0  0  0  0  0  0  0  0  0  0  0
  -11.6179  -27.9446   20.1439 N   0  0  0  0  0  0  0  0  0  0  0  0
  -11.4979  -27.3678   18.3807 C   0  0  0  0  0  0  0  0  0  0  0  0
  -12.3051  -28.6939   17.8352 C   0  0  0  0  0  0  0  0  0  0  0  0
  -12.4732  -26.4777   17.5860 C   0  0  0  0  0  0  0  0  0  0  0  0
  -12.2094  -26.3167   16.1935 C   0  0  0  0  0  0  0  0  0  0  0  0
  -13.1884  -25.8478   15.3217 C   0  0  0  0  0  0  0  0  0  0  0  0
  -14.4021  -25.4834   15.8682 C   0  0  0  0  0  0  0  0  0  0  0  0
  -14.6835  -25.5690   17.1903 N   0  0  0  0  0  0  0  0  0  0  0  0
  -13.7253  -26.0730   18.0124 C   0  0  0  0  0  0  0  0  0  0  0  0
  -12.3784  -26.7723   25.2477 C   0  0  0  0  0  0  0  0  0  0  0  0
  -11.4557  -23.9517   28.9492 H   0  0  0  0  0  0  0  0  0  0  0  0
  -10.3943  -22.6794   28.3344 H   0  0  0  0  0  0  0  0  0  0  0  0
  -12.0370  -22.2931   28.7364 H   0  0  0  0  0  0  0  0  0  0  0  0
  -10.9493  -23.8331   26.3424 H   0  0  0  0  0  0  0  0  0  0  0  0
  -12.0066  -22.4039   26.3776 H   0  0  0  0  0  0  0  0  0  0  0  0
  -11.0889  -26.6583   28.5642 H   0  0  0  0  0  0  0  0  0  0  0  0
   -9.8941  -28.4383   27.2080 H   0  0  0  0  0  0  0  0  0  0  0  0
  -11.5838  -28.5741   26.7203 H   0  0  0  0  0  0  0  0  0  0  0  0
   -9.4855  -27.6219   24.9132 H   0  0  0  0  0  0  0  0  0  0  0  0
  -10.2454  -25.9965   25.4506 H   0  0  0  0  0  0  0  0  0  0  0  0
  -12.3667  -28.5579   20.3332 H   0  0  0  0  0  0  0  0  0  0  0  0
  -10.5263  -27.3337   17.8716 H   0  0  0  0  0  0  0  0  0  0  0  0
  -13.3994  -28.5791   17.8258 H   0  0  0  0  0  0  0  0  0  0  0  0
  -11.9982  -28.9544   16.8143 H   0  0  0  0  0  0  0  0  0  0  0  0
  -12.2010  -29.5628   18.4890 H   0  0  0  0  0  0  0  0  0  0  0  0
  -11.2501  -26.6277   15.7794 H   0  0  0  0  0  0  0  0  0  0  0  0
  -13.0003  -25.7532   14.2587 H   0  0  0  0  0  0  0  0  0  0  0  0
  -15.2029  -25.0888   15.2496 H   0  0  0  0  0  0  0  0  0  0  0  0
  -14.0245  -26.1980   19.0475 H   0  0  0  0  0  0  0  0  0  0  0  0
  -13.1276  -26.0425   24.8397 H   0  0  0  0  0  0  0  0  0  0  0  0
  -13.0187  -27.6583   25.4013 H   0  0  0  0  0  0  0  0  0  0  0  0
  1  2  1  0
  2  3  1  0
  3  4  1  0
  4  5  2  0
  4  6  1  0
  6  7  2  0
  7  8  1  0
  8  9  1  0
  9 10  1  0
 10 11  1  0
 11 12  2  0
 11 13  1  0
 13 14  1  0
 14 15  1  0
 14 16  1  0
 16 17  2  0
 17 18  1  0
 18 19  2  0
 19 20  1  0
 20 21  2  0
 10 22  1  0
 22  6  1  0
 21 16  1  0
  1 23  1  0
  1 24  1  0
  1 25  1  0
  2 26  1  0
  2 27  1  0
  7 28  1  0
  8 29  1  0
  8 30  1  0
  9 31  1  0
  9 32  1  0
 13 33  1  0
 14 34  1  0
 15 35  1  0
 15 36  1  0
 15 37  1  0
 17 38  1  0
 18 39  1  0
 19 40  1  0
 21 41  1  0
 22 42  1  0
 22 43  1  0
M  END
>  <Energy>  (766) 
808.71584478934335

>  <compound_id>  (766) 
87531

>  <target_id>  (766) 
1

>  <reference_id>  (766) 
48

>  <inspiration_ids>  (766) 
[123, 48]

>  <energy_score>  (766) 
828.5494308888893

>  <distance_score>  (766) 
6.845165266844779

>  <path>  (766) 
/opt/xchem-fragalysis-2/maxwin/BulkDock/SCRATCH/511017/C87531-P48/C87531-P48.minimised.mol

>  <scratch_subdir>  (766) 
/opt/xchem-fragalysis-2/maxwin/BulkDock/SCRATCH/511017/C87531-P48

>  <fragmenstein_runtime>  (766) 
6.459845542907715

>  <fragmenstein_outcome>  (766) 
too moved

>  <fragmenstein_mode>  (766) 
expansion

>  <fragmenstein_error>  (766) 


$$$$
C87532-P123
     RDKit          3D

 46 47  0  0  0  0  0  0  0  0999 V2000
  -12.3262  -24.9999   26.6026 C   0  0  0  0  0  0  0  0  0  0  0  0
  -13.3433  -25.4240   27.6460 C   0  0  0  0  0  0  0  0  0  0  0  0
  -14.6095  -25.6401   26.9908 O   0  0  0  0  0  0  0  0  0  0  0  0
  -15.2943  -26.7681   27.2867 C   0  0  0  0  0  0  0  0  0  0  0  0
  -15.0228  -27.5620   28.1736 O   0  0  0  0  0  0  0  0  0  0  0  0
  -16.3887  -26.9890   26.3083 C   0  0  0  0  0  0  0  0  0  0  0  0
  -16.6579  -28.2915   26.1240 C   0  0  0  0  0  0  0  0  0  0  0  0
  -16.3414  -28.6115   24.7053 C   0  0  0  0  0  0  0  0  0  0  0  0
  -15.3518  -27.4771   24.2689 C   0  0  0  0  0  0  0  0  0  0  0  0
  -15.9033  -26.2240   23.6715 N   0  0  0  0  0  0  0  0  0  0  0  0
  -14.8229  -25.4395   23.0664 C   0  0  0  0  0  0  0  0  0  0  0  0
  -14.1474  -24.5934   23.5421 O   0  0  0  0  0  0  0  0  0  0  0  0
  -14.8269  -25.9559   21.3952 N   0  0  0  0  0  0  0  0  0  0  0  0
  -13.9638  -25.3154   19.9796 C   0  0  0  0  0  0  0  0  0  0  0  0
  -12.9446  -24.2152   19.8339 C   0  0  0  0  0  0  0  0  0  0  0  0
  -14.1751  -26.0956   18.3133 C   0  0  0  0  0  0  0  0  0  0  0  0
  -13.9007  -25.6626   16.8616 C   0  0  0  0  0  0  0  0  0  0  0  0
  -12.8584  -26.2645   16.1256 C   0  0  0  0  0  0  0  0  0  0  0  0
  -12.7683  -26.1057   14.7390 C   0  0  0  0  0  0  0  0  0  0  0  0
  -13.7345  -25.3477   14.1036 C   0  0  0  0  0  0  0  0  0  0  0  0
  -14.7505  -24.7452   14.7595 N   0  0  0  0  0  0  0  0  0  0  0  0
  -14.8137  -24.9233   16.1085 C   0  0  0  0  0  0  0  0  0  0  0  0
  -16.5751  -26.1101   25.0785 C   0  0  0  0  0  0  0  0  0  0  0  0
  -12.6627  -24.1003   26.0772 H   0  0  0  0  0  0  0  0  0  0  0  0
  -11.3553  -24.7968   27.0632 H   0  0  0  0  0  0  0  0  0  0  0  0
  -12.2023  -25.7834   25.8476 H   0  0  0  0  0  0  0  0  0  0  0  0
  -13.4748  -24.6220   28.3786 H   0  0  0  0  0  0  0  0  0  0  0  0
  -12.9847  -26.3228   28.1580 H   0  0  0  0  0  0  0  0  0  0  0  0
  -16.4636  -29.0586   26.8709 H   0  0  0  0  0  0  0  0  0  0  0  0
  -17.2333  -28.6653   24.0734 H   0  0  0  0  0  0  0  0  0  0  0  0
  -15.8469  -29.5864   24.7046 H   0  0  0  0  0  0  0  0  0  0  0  0
  -14.5393  -27.2505   24.9853 H   0  0  0  0  0  0  0  0  0  0  0  0
  -14.6749  -27.8572   23.5342 H   0  0  0  0  0  0  0  0  0  0  0  0
  -15.5301  -26.5969   21.2576 H   0  0  0  0  0  0  0  0  0  0  0  0
  -14.5816  -24.5451   20.0952 H   0  0  0  0  0  0  0  0  0  0  0  0
  -12.9317  -23.3082   20.4676 H   0  0  0  0  0  0  0  0  0  0  0  0
  -13.2013  -23.7849   18.8668 H   0  0  0  0  0  0  0  0  0  0  0  0
  -11.9424  -24.5893   19.9297 H   0  0  0  0  0  0  0  0  0  0  0  0
  -15.2192  -26.4280   18.2057 H   0  0  0  0  0  0  0  0  0  0  0  0
  -13.6340  -27.0403   18.3378 H   0  0  0  0  0  0  0  0  0  0  0  0
  -12.1199  -26.8867   16.6282 H   0  0  0  0  0  0  0  0  0  0  0  0
  -11.9632  -26.5651   14.1755 H   0  0  0  0  0  0  0  0  0  0  0  0
  -13.7108  -25.1899   13.0296 H   0  0  0  0  0  0  0  0  0  0  0  0
  -15.6871  -24.4689   16.5678 H   0  0  0  0  0  0  0  0  0  0  0  0
  -17.6515  -26.0904   24.8452 H   0  0  0  0  0  0  0  0  0  0  0  0
  -16.3559  -25.0727   25.3626 H   0  0  0  0  0  0  0  0  0  0  0  0
  1  2  1  0
  2  3  1  0
  3  4  1  0
  4  5  2  0
  4  6  1  0
  6  7  2  0
  7  8  1  0
  8  9  1  0
  9 10  1  0
 10 11  1  0
 11 12  2  0
 11 13  1  0
 13 14  1  0
 14 15  1  0
 14 16  1  0
 16 17  1  0
 17 18  2  0
 18 19  1  0
 19 20  2  0
 20 21  1  0
 21 22  2  0
 10 23  1  0
 23  6  1  0
 22 17  1  0
  1 24  1  0
  1 25  1  0
  1 26  1  0
  2 27  1  0
  2 28  1  0
  7 29  1  0
  8 30  1  0
  8 31  1  0
  9 32  1  0
  9 33  1  0
 13 34  1  0
 14 35  1  0
 15 36  1  0
 15 37  1  0
 15 38  1  0
 16 39  1  0
 16 40  1  0
 18 41  1  0
 19 42  1  0
 20 43  1  0
 22 44  1  0
 23 45  1  0
 23 46  1  0
M  END
>  <Energy>  (767) 
224.13508043096164

>  <compound_id>  (767) 
87532

>  <target_id>  (767) 
1

>  <reference_id>  (767) 
123

>  <inspiration_ids>  (767) 
[123, 48]

>  <energy_score>  (767) 
236.46073874509142

>  <distance_score>  (767) 
7.2319127825889975

>  <path>  (767) 
/opt/xchem-fragalysis-2/maxwin/BulkDock/SCRATCH/511017/C87532-P123/C87532-P123.minimised.mol

>  <scratch_subdir>  (767) 
/opt/xchem-fragalysis-2/maxwin/BulkDock/SCRATCH/511017/C87532-P123

>  <fragmenstein_runtime>  (767) 
14.373534679412842

>  <fragmenstein_outcome>  (767) 
too moved

>  <fragmenstein_mode>  (767) 
expansion

>  <fragmenstein_error>  (767) 


$$$$
C87532-P48
     RDKit          3D

 46 47  0  0  0  0  0  0  0  0999 V2000
  -17.0495  -25.6576   30.5174 C   0  0  0  0  0  0  0  0  0  0  0  0
  -17.4340  -27.0990   30.2153 C   0  0  0  0  0  0  0  0  0  0  0  0
  -16.4457  -27.6204   29.3217 O   0  0  0  0  0  0  0  0  0  0  0  0
  -16.7048  -27.4314   28.0072 C   0  0  0  0  0  0  0  0  0  0  0  0
  -17.7946  -27.4812   27.4646 O   0  0  0  0  0  0  0  0  0  0  0  0
  -15.4522  -27.0382   27.3041 C   0  0  0  0  0  0  0  0  0  0  0  0
  -14.2681  -27.0701   27.9305 C   0  0  0  0  0  0  0  0  0  0  0  0
  -13.1816  -26.4133   27.1967 C   0  0  0  0  0  0  0  0  0  0  0  0
  -13.6281  -26.3745   25.7315 C   0  0  0  0  0  0  0  0  0  0  0  0
  -14.7034  -25.6380   24.9412 N   0  0  0  0  0  0  0  0  0  0  0  0
  -14.3535  -24.1281   24.8474 C   0  0  0  0  0  0  0  0  0  0  0  0
  -14.6433  -23.2362   25.5429 O   0  0  0  0  0  0  0  0  0  0  0  0
  -13.6650  -24.1536   23.6271 N   0  0  0  0  0  0  0  0  0  0  0  0
  -13.0652  -22.8552   22.5986 C   0  0  0  0  0  0  0  0  0  0  0  0
  -11.8841  -22.0406   23.1569 C   0  0  0  0  0  0  0  0  0  0  0  0
  -12.6601  -23.5107   20.7247 C   0  0  0  0  0  0  0  0  0  0  0  0
  -13.4162  -24.7942   19.4526 C   0  0  0  0  0  0  0  0  0  0  0  0
  -13.8061  -26.1275   19.5336 C   0  0  0  0  0  0  0  0  0  0  0  0
  -14.2770  -27.0201   18.5097 C   0  0  0  0  0  0  0  0  0  0  0  0
  -14.5072  -26.5436   17.2561 C   0  0  0  0  0  0  0  0  0  0  0  0
  -14.3397  -25.2590   17.0308 N   0  0  0  0  0  0  0  0  0  0  0  0
  -13.8511  -24.5169   18.0932 C   0  0  0  0  0  0  0  0  0  0  0  0
  -15.6548  -26.4000   25.9354 C   0  0  0  0  0  0  0  0  0  0  0  0
  -16.0165  -25.5956   30.8753 H   0  0  0  0  0  0  0  0  0  0  0  0
  -17.1167  -25.0414   29.6157 H   0  0  0  0  0  0  0  0  0  0  0  0
  -17.7137  -25.2327   31.2753 H   0  0  0  0  0  0  0  0  0  0  0  0
  -18.4466  -27.1670   29.8032 H   0  0  0  0  0  0  0  0  0  0  0  0
  -17.4016  -27.6981   31.1305 H   0  0  0  0  0  0  0  0  0  0  0  0
  -14.1096  -27.4446   28.9373 H   0  0  0  0  0  0  0  0  0  0  0  0
  -12.9221  -25.4276   27.5948 H   0  0  0  0  0  0  0  0  0  0  0  0
  -12.2769  -27.0299   27.2738 H   0  0  0  0  0  0  0  0  0  0  0  0
  -12.7195  -25.9227   25.3467 H   0  0  0  0  0  0  0  0  0  0  0  0
  -13.6148  -27.3996   25.3321 H   0  0  0  0  0  0  0  0  0  0  0  0
  -13.6699  -25.1049   23.2659 H   0  0  0  0  0  0  0  0  0  0  0  0
  -13.8163  -22.1697   22.8899 H   0  0  0  0  0  0  0  0  0  0  0  0
  -11.5269  -21.3323   22.4047 H   0  0  0  0  0  0  0  0  0  0  0  0
  -11.0444  -22.6239   23.5017 H   0  0  0  0  0  0  0  0  0  0  0  0
  -12.2154  -21.4608   24.0267 H   0  0  0  0  0  0  0  0  0  0  0  0
  -11.7179  -24.0354   20.8339 H   0  0  0  0  0  0  0  0  0  0  0  0
  -12.5107  -22.5593   20.2143 H   0  0  0  0  0  0  0  0  0  0  0  0
  -13.8354  -26.5787   20.4805 H   0  0  0  0  0  0  0  0  0  0  0  0
  -14.4944  -28.0561   18.7448 H   0  0  0  0  0  0  0  0  0  0  0  0
  -14.8694  -27.1549   16.4403 H   0  0  0  0  0  0  0  0  0  0  0  0
  -13.7121  -23.5509   17.7046 H   0  0  0  0  0  0  0  0  0  0  0  0
  -16.0221  -27.2190   25.2950 H   0  0  0  0  0  0  0  0  0  0  0  0
  -16.5129  -25.7161   26.0013 H   0  0  0  0  0  0  0  0  0  0  0  0
  1  2  1  0
  2  3  1  0
  3  4  1  0
  4  5  2  0
  4  6  1  0
  6  7  2  0
  7  8  1  0
  8  9  1  0
  9 10  1  0
 10 11  1  0
 11 12  2  0
 11 13  1  0
 13 14  1  0
 14 15  1  0
 14 16  1  0
 16 17  1  0
 17 18  2  0
 18 19  1  0
 19 20  2  0
 20 21  1  0
 21 22  2  0
 10 23  1  0
 23  6  1  0
 22 17  1  0
  1 24  1  0
  1 25  1  0
  1 26  1  0
  2 27  1  0
  2 28  1  0
  7 29  1  0
  8 30  1  0
  8 31  1  0
  9 32  1  0
  9 33  1  0
 13 34  1  0
 14 35  1  0
 15 36  1  0
 15 37  1  0
 15 38  1  0
 16 39  1  0
 16 40  1  0
 18 41  1  0
 19 42  1  0
 20 43  1  0
 22 44  1  0
 23 45  1  0
 23 46  1  0
M  END
>  <Energy>  (768) 
246.76598839640852

>  <compound_id>  (768) 
87532

>  <target_id>  (768) 
1

>  <reference_id>  (768) 
48

>  <inspiration_ids>  (768) 
[123, 48]

>  <energy_score>  (768) 
259.09164671052577

>  <distance_score>  (768) 
8.387384929953258

>  <path>  (768) 
/opt/xchem-fragalysis-2/maxwin/BulkDock/SCRATCH/511017/C87532-P48/C87532-P48.minimised.mol

>  <scratch_subdir>  (768) 
/opt/xchem-fragalysis-2/maxwin/BulkDock/SCRATCH/511017/C87532-P48

>  <fragmenstein_runtime>  (768) 
11.756085395812988

>  <fragmenstein_outcome>  (768) 
too moved

>  <fragmenstein_mode>  (768) 
expansion

>  <fragmenstein_error>  (768) 


$$$$
C87534-P123
     RDKit          3D

 37 38  0  0  0  0  0  0  0  0999 V2000
  -18.0746  -26.2657   23.0548 C   0  0  0  0  0  0  0  0  0  0  0  0
  -19.0286  -25.9678   21.9007 C   0  0  0  0  0  0  0  0  0  0  0  0
  -18.8133  -26.9212   20.8461 O   0  0  0  0  0  0  0  0  0  0  0  0
  -19.2469  -26.5435   19.6110 C   0  0  0  0  0  0  0  0  0  0  0  0
  -19.7530  -25.4806   19.3007 O   0  0  0  0  0  0  0  0  0  0  0  0
  -18.9648  -27.6416   18.6677 C   0  0  0  0  0  0  0  0  0  0  0  0
  -19.7337  -28.7318   18.7288 C   0  0  0  0  0  0  0  0  0  0  0  0
  -19.1880  -29.8984   18.0097 C   0  0  0  0  0  0  0  0  0  0  0  0
  -17.7263  -29.5910   17.6707 C   0  0  0  0  0  0  0  0  0  0  0  0
  -17.4607  -28.5510   16.6198 N   0  0  0  0  0  0  0  0  0  0  0  0
  -16.2014  -28.1841   15.9303 C   0  0  0  0  0  0  0  0  0  0  0  0
  -15.1031  -28.5606   16.1101 O   0  0  0  0  0  0  0  0  0  0  0  0
  -16.7435  -27.2880   14.8958 N   0  0  0  0  0  0  0  0  0  0  0  0
  -16.1294  -26.7009   13.7767 C   0  0  0  0  0  0  0  0  0  0  0  0
  -16.8875  -25.9844   12.8546 C   0  0  0  0  0  0  0  0  0  0  0  0
  -16.2721  -25.4154   11.7345 C   0  0  0  0  0  0  0  0  0  0  0  0
  -14.9080  -25.5809   11.5675 C   0  0  0  0  0  0  0  0  0  0  0  0
  -14.1384  -26.2674   12.4321 N   0  0  0  0  0  0  0  0  0  0  0  0
  -14.7636  -26.8121   13.5118 C   0  0  0  0  0  0  0  0  0  0  0  0
  -17.7124  -27.5820   17.8244 C   0  0  0  0  0  0  0  0  0  0  0  0
  -18.2276  -27.2858   23.4219 H   0  0  0  0  0  0  0  0  0  0  0  0
  -17.0368  -26.1989   22.7266 H   0  0  0  0  0  0  0  0  0  0  0  0
  -18.2317  -25.5641   23.8786 H   0  0  0  0  0  0  0  0  0  0  0  0
  -18.8621  -24.9456   21.5468 H   0  0  0  0  0  0  0  0  0  0  0  0
  -20.0642  -26.0631   22.2434 H   0  0  0  0  0  0  0  0  0  0  0  0
  -20.6203  -28.8138   19.3475 H   0  0  0  0  0  0  0  0  0  0  0  0
  -19.7731  -30.0964   17.1053 H   0  0  0  0  0  0  0  0  0  0  0  0
  -19.2356  -30.7865   18.6492 H   0  0  0  0  0  0  0  0  0  0  0  0
  -17.0501  -29.5761   18.5392 H   0  0  0  0  0  0  0  0  0  0  0  0
  -17.3693  -30.5007   17.1614 H   0  0  0  0  0  0  0  0  0  0  0  0
  -17.7491  -27.2437   14.9891 H   0  0  0  0  0  0  0  0  0  0  0  0
  -17.9577  -25.8600   12.9905 H   0  0  0  0  0  0  0  0  0  0  0  0
  -16.8506  -24.8556   11.0079 H   0  0  0  0  0  0  0  0  0  0  0  0
  -14.3867  -25.1587   10.7138 H   0  0  0  0  0  0  0  0  0  0  0  0
  -14.0988  -27.3588   14.1755 H   0  0  0  0  0  0  0  0  0  0  0  0
  -16.8085  -27.5194   18.4365 H   0  0  0  0  0  0  0  0  0  0  0  0
  -17.7446  -26.5984   17.3309 H   0  0  0  0  0  0  0  0  0  0  0  0
  1  2  1  0
  2  3  1  0
  3  4  1  0
  4  5  2  0
  4  6  1  0
  6  7  2  0
  7  8  1  0
  8  9  1  0
  9 10  1  0
 10 11  1  0
 11 12  2  0
 11 13  1  0
 13 14  1  0
 14 15  2  0
 15 16  1  0
 16 17  2  0
 17 18  1  0
 18 19  2  0
 10 20  1  0
 20  6  1  0
 19 14  1  0
  1 21  1  0
  1 22  1  0
  1 23  1  0
  2 24  1  0
  2 25  1  0
  7 26  1  0
  8 27  1  0
  8 28  1  0
  9 29  1  0
  9 30  1  0
 13 31  1  0
 15 32  1  0
 16 33  1  0
 17 34  1  0
 19 35  1  0
 20 36  1  0
 20 37  1  0
M  END
>  <Energy>  (769) 
47.800773602277822

>  <compound_id>  (769) 
87534

>  <target_id>  (769) 
1

>  <reference_id>  (769) 
123

>  <inspiration_ids>  (769) 
[123, 48]

>  <energy_score>  (769) 
30.258381325918265

>  <distance_score>  (769) 
11.687874302184309

>  <path>  (769) 
/opt/xchem-fragalysis-2/maxwin/BulkDock/SCRATCH/511017/C87534-P123/C87534-P123.minimised.mol

>  <scratch_subdir>  (769) 
/opt/xchem-fragalysis-2/maxwin/BulkDock/SCRATCH/511017/C87534-P123

>  <fragmenstein_runtime>  (769) 
11.43712043762207

>  <fragmenstein_outcome>  (769) 
too moved

>  <fragmenstein_mode>  (769) 
expansion

>  <fragmenstein_error>  (769) 


$$$$
C87534-P48
     RDKit          3D

 37 38  0  0  0  0  0  0  0  0999 V2000
  -12.6941  -21.2037   23.7574 C   0  0  0  0  0  0  0  0  0  0  0  0
  -13.3113  -22.4602   24.3092 C   0  0  0  0  0  0  0  0  0  0  0  0
  -12.4649  -22.8679   25.3845 O   0  0  0  0  0  0  0  0  0  0  0  0
  -12.7021  -24.0869   25.8717 C   0  0  0  0  0  0  0  0  0  0  0  0
  -13.6888  -24.7880   25.6938 O   0  0  0  0  0  0  0  0  0  0  0  0
  -11.5357  -24.5637   26.6052 C   0  0  0  0  0  0  0  0  0  0  0  0
  -11.8407  -24.8257   27.8731 C   0  0  0  0  0  0  0  0  0  0  0  0
  -11.1100  -25.9896   28.3342 C   0  0  0  0  0  0  0  0  0  0  0  0
  -10.7666  -26.8672   27.0729 C   0  0  0  0  0  0  0  0  0  0  0  0
  -10.6832  -26.7359   25.4624 N   0  0  0  0  0  0  0  0  0  0  0  0
   -9.6509  -27.7018   24.3411 C   0  0  0  0  0  0  0  0  0  0  0  0
   -8.8089  -28.5048   24.5503 O   0  0  0  0  0  0  0  0  0  0  0  0
  -10.5112  -27.1226   22.7102 N   0  0  0  0  0  0  0  0  0  0  0  0
  -10.5199  -27.6890   20.8053 C   0  0  0  0  0  0  0  0  0  0  0  0
  -11.8581  -28.5303   19.6960 C   0  0  0  0  0  0  0  0  0  0  0  0
  -12.5771  -28.8093   18.3391 C   0  0  0  0  0  0  0  0  0  0  0  0
  -12.8228  -27.7067   17.5876 C   0  0  0  0  0  0  0  0  0  0  0  0
  -12.2694  -26.5929   18.0396 N   0  0  0  0  0  0  0  0  0  0  0  0
  -11.2318  -26.7910   19.1912 C   0  0  0  0  0  0  0  0  0  0  0  0
  -10.2523  -25.2707   25.9990 C   0  0  0  0  0  0  0  0  0  0  0  0
  -12.1864  -21.4055   22.8095 H   0  0  0  0  0  0  0  0  0  0  0  0
  -13.4641  -20.4484   23.6061 H   0  0  0  0  0  0  0  0  0  0  0  0
  -11.9497  -20.7737   24.4211 H   0  0  0  0  0  0  0  0  0  0  0  0
  -13.3561  -23.1992   23.5227 H   0  0  0  0  0  0  0  0  0  0  0  0
  -14.3568  -22.3609   24.6077 H   0  0  0  0  0  0  0  0  0  0  0  0
  -12.7055  -24.4905   28.4140 H   0  0  0  0  0  0  0  0  0  0  0  0
  -10.2602  -25.6521   28.9252 H   0  0  0  0  0  0  0  0  0  0  0  0
  -11.7324  -26.5873   29.0121 H   0  0  0  0  0  0  0  0  0  0  0  0
  -11.7283  -27.4209   27.0171 H   0  0  0  0  0  0  0  0  0  0  0  0
  -10.1785  -27.7393   27.3931 H   0  0  0  0  0  0  0  0  0  0  0  0
  -11.0389  -26.4475   22.8807 H   0  0  0  0  0  0  0  0  0  0  0  0
  -12.8664  -28.0626   19.9745 H   0  0  0  0  0  0  0  0  0  0  0  0
  -13.0723  -29.7593   18.1802 H   0  0  0  0  0  0  0  0  0  0  0  0
  -13.4463  -27.6676   16.7085 H   0  0  0  0  0  0  0  0  0  0  0  0
  -10.5207  -26.9392   18.2621 H   0  0  0  0  0  0  0  0  0  0  0  0
   -9.4611  -25.0468   26.6906 H   0  0  0  0  0  0  0  0  0  0  0  0
   -9.9965  -24.6364   25.1661 H   0  0  0  0  0  0  0  0  0  0  0  0
  1  2  1  0
  2  3  1  0
  3  4  1  0
  4  5  2  0
  4  6  1  0
  6  7  2  0
  7  8  1  0
  8  9  1  0
  9 10  1  0
 10 11  1  0
 11 12  2  0
 11 13  1  0
 13 14  1  0
 14 15  2  0
 15 16  1  0
 16 17  2  0
 17 18  1  0
 18 19  2  0
 10 20  1  0
 20  6  1  0
 19 14  1  0
  1 21  1  0
  1 22  1  0
  1 23  1  0
  2 24  1  0
  2 25  1  0
  7 26  1  0
  8 27  1  0
  8 28  1  0
  9 29  1  0
  9 30  1  0
 13 31  1  0
 15 32  1  0
 16 33  1  0
 17 34  1  0
 19 35  1  0
 20 36  1  0
 20 37  1  0
M  END
>  <Energy>  (770) 
810.40574577321706

>  <compound_id>  (770) 
87534

>  <target_id>  (770) 
1

>  <reference_id>  (770) 
48

>  <inspiration_ids>  (770) 
[123, 48]

>  <energy_score>  (770) 
792.8633534968582

>  <distance_score>  (770) 
7.998616035187153

>  <path>  (770) 
/opt/xchem-fragalysis-2/maxwin/BulkDock/SCRATCH/511017/C87534-P48/C87534-P48.minimised.mol

>  <scratch_subdir>  (770) 
/opt/xchem-fragalysis-2/maxwin/BulkDock/SCRATCH/511017/C87534-P48

>  <fragmenstein_runtime>  (770) 
7.590221881866455

>  <fragmenstein_outcome>  (770) 
too moved

>  <fragmenstein_mode>  (770) 
expansion

>  <fragmenstein_error>  (770) 


$$$$
C87536-P123
     RDKit          3D

 39 40  0  0  0  0  0  0  0  0999 V2000
  -17.5527  -25.8958   25.0597 C   0  0  0  0  0  0  0  0  0  0  0  0
  -16.7718  -26.9764   25.7760 C   0  0  0  0  0  0  0  0  0  0  0  0
  -15.4174  -26.8689   25.3318 O   0  0  0  0  0  0  0  0  0  0  0  0
  -14.5759  -26.1727   26.1293 C   0  0  0  0  0  0  0  0  0  0  0  0
  -14.7588  -25.8666   27.2959 O   0  0  0  0  0  0  0  0  0  0  0  0
  -13.3623  -25.8196   25.3404 C   0  0  0  0  0  0  0  0  0  0  0  0
  -12.5753  -24.8432   25.8105 C   0  0  0  0  0  0  0  0  0  0  0  0
  -11.2681  -24.7140   25.1357 C   0  0  0  0  0  0  0  0  0  0  0  0
  -11.0571  -26.1101   24.5472 C   0  0  0  0  0  0  0  0  0  0  0  0
  -11.5346  -26.6840   22.6492 N   0  0  0  0  0  0  0  0  0  0  0  0
  -11.7304  -25.0886   20.4637 S   0  0  0  0  0  0  0  0  0  0  0  0
  -13.3461  -24.9524   20.2251 O   0  0  0  0  0  0  0  0  0  0  0  0
  -11.6445  -23.5720   20.6244 O   0  0  0  0  0  0  0  0  0  0  0  0
  -11.8569  -26.0623   18.1376 C   0  0  0  0  0  0  0  0  0  0  0  0
  -13.0556  -25.9107   17.0473 C   0  0  0  0  0  0  0  0  0  0  0  0
  -14.4010  -26.1236   17.1927 C   0  0  0  0  0  0  0  0  0  0  0  0
  -15.2613  -26.1221   16.0834 C   0  0  0  0  0  0  0  0  0  0  0  0
  -14.7341  -25.9794   14.8126 C   0  0  0  0  0  0  0  0  0  0  0  0
  -13.4188  -25.8798   14.5859 N   0  0  0  0  0  0  0  0  0  0  0  0
  -12.6279  -25.8810   15.6892 C   0  0  0  0  0  0  0  0  0  0  0  0
  -13.1391  -26.5929   24.0034 C   0  0  0  0  0  0  0  0  0  0  0  0
  -18.5929  -25.8778   25.3963 H   0  0  0  0  0  0  0  0  0  0  0  0
  -17.5422  -26.0751   23.9786 H   0  0  0  0  0  0  0  0  0  0  0  0
  -17.1089  -24.9072   25.2091 H   0  0  0  0  0  0  0  0  0  0  0  0
  -17.1408  -27.9658   25.4881 H   0  0  0  0  0  0  0  0  0  0  0  0
  -16.8654  -26.8926   26.8634 H   0  0  0  0  0  0  0  0  0  0  0  0
  -12.7892  -24.2726   26.7106 H   0  0  0  0  0  0  0  0  0  0  0  0
  -10.5430  -24.5174   25.9295 H   0  0  0  0  0  0  0  0  0  0  0  0
  -11.2186  -23.8775   24.4379 H   0  0  0  0  0  0  0  0  0  0  0  0
  -11.4931  -26.9086   25.1803 H   0  0  0  0  0  0  0  0  0  0  0  0
  -10.1264  -26.6240   24.7694 H   0  0  0  0  0  0  0  0  0  0  0  0
  -11.0297  -26.1079   17.4468 H   0  0  0  0  0  0  0  0  0  0  0  0
  -11.9791  -27.1879   18.1356 H   0  0  0  0  0  0  0  0  0  0  0  0
  -14.8005  -26.3281   18.1612 H   0  0  0  0  0  0  0  0  0  0  0  0
  -16.3298  -26.2550   16.2185 H   0  0  0  0  0  0  0  0  0  0  0  0
  -15.3689  -25.9715   13.9325 H   0  0  0  0  0  0  0  0  0  0  0  0
  -11.5679  -25.8378   15.4363 H   0  0  0  0  0  0  0  0  0  0  0  0
  -14.0287  -26.0761   23.5131 H   0  0  0  0  0  0  0  0  0  0  0  0
  -13.4737  -27.6225   24.1098 H   0  0  0  0  0  0  0  0  0  0  0  0
  1  2  1  0
  2  3  1  0
  3  4  1  0
  4  5  2  0
  4  6  1  0
  6  7  2  0
  7  8  1  0
  8  9  1  0
  9 10  1  0
 10 11  1  0
 11 12  2  0
 11 13  2  0
 11 14  1  0
 14 15  1  0
 15 16  2  0
 16 17  1  0
 17 18  2  0
 18 19  1  0
 19 20  2  0
 10 21  1  0
 21  6  1  0
 20 15  1  0
  1 22  1  0
  1 23  1  0
  1 24  1  0
  2 25  1  0
  2 26  1  0
  7 27  1  0
  8 28  1  0
  8 29  1  0
  9 30  1  0
  9 31  1  0
 14 32  1  0
 14 33  1  0
 16 34  1  0
 17 35  1  0
 18 36  1  0
 20 37  1  0
 21 38  1  0
 21 39  1  0
M  END
>  <Energy>  (771) 
903.12986107540314

>  <compound_id>  (771) 
87536

>  <target_id>  (771) 
1

>  <reference_id>  (771) 
123

>  <inspiration_ids>  (771) 
[123, 48]

>  <energy_score>  (771) 
873.9879250115282

>  <distance_score>  (771) 
7.570141909475616

>  <path>  (771) 
/opt/xchem-fragalysis-2/maxwin/BulkDock/SCRATCH/511017/C87536-P123/C87536-P123.minimised.mol

>  <scratch_subdir>  (771) 
/opt/xchem-fragalysis-2/maxwin/BulkDock/SCRATCH/511017/C87536-P123

>  <fragmenstein_runtime>  (771) 
9.933675050735474

>  <fragmenstein_outcome>  (771) 
too moved

>  <fragmenstein_mode>  (771) 
expansion

>  <fragmenstein_error>  (771) 


$$$$
C87536-P48
     RDKit          3D

 39 40  0  0  0  0  0  0  0  0999 V2000
  -11.0208  -25.9118   30.8312 C   0  0  0  0  0  0  0  0  0  0  0  0
  -12.0434  -25.1129   30.0533 C   0  0  0  0  0  0  0  0  0  0  0  0
  -12.8114  -25.9811   29.2060 O   0  0  0  0  0  0  0  0  0  0  0  0
  -12.2483  -26.2593   28.0088 C   0  0  0  0  0  0  0  0  0  0  0  0
  -11.1380  -25.9453   27.6196 O   0  0  0  0  0  0  0  0  0  0  0  0
  -13.2347  -26.9417   27.1398 C   0  0  0  0  0  0  0  0  0  0  0  0
  -14.0507  -27.8842   27.6276 C   0  0  0  0  0  0  0  0  0  0  0  0
  -15.1441  -28.4350   26.7873 C   0  0  0  0  0  0  0  0  0  0  0  0
  -15.4114  -27.5829   25.5410 C   0  0  0  0  0  0  0  0  0  0  0  0
  -14.0712  -27.3227   24.6988 N   0  0  0  0  0  0  0  0  0  0  0  0
  -14.6095  -26.5424   23.0607 S   0  0  0  0  0  0  0  0  0  0  0  0
  -16.0564  -26.7866   23.0572 O   0  0  0  0  0  0  0  0  0  0  0  0
  -14.2016  -25.2923   23.7141 O   0  0  0  0  0  0  0  0  0  0  0  0
  -13.9848  -26.5586   20.6856 C   0  0  0  0  0  0  0  0  0  0  0  0
  -15.1222  -26.7613   19.5433 C   0  0  0  0  0  0  0  0  0  0  0  0
  -14.6364  -26.5253   18.2143 C   0  0  0  0  0  0  0  0  0  0  0  0
  -15.4417  -26.7053   17.0982 C   0  0  0  0  0  0  0  0  0  0  0  0
  -16.7247  -27.1433   17.3276 C   0  0  0  0  0  0  0  0  0  0  0  0
  -17.2152  -27.4109   18.5640 N   0  0  0  0  0  0  0  0  0  0  0  0
  -16.4152  -27.2193   19.6476 C   0  0  0  0  0  0  0  0  0  0  0  0
  -13.2532  -26.3985   25.7389 C   0  0  0  0  0  0  0  0  0  0  0  0
  -10.3171  -26.4179   30.1669 H   0  0  0  0  0  0  0  0  0  0  0  0
  -10.4576  -25.2667   31.5111 H   0  0  0  0  0  0  0  0  0  0  0  0
  -11.5139  -26.6931   31.4193 H   0  0  0  0  0  0  0  0  0  0  0  0
  -11.5712  -24.3137   29.4704 H   0  0  0  0  0  0  0  0  0  0  0  0
  -12.7442  -24.6375   30.7471 H   0  0  0  0  0  0  0  0  0  0  0  0
  -13.9732  -28.2291   28.6563 H   0  0  0  0  0  0  0  0  0  0  0  0
  -14.9016  -29.4656   26.5094 H   0  0  0  0  0  0  0  0  0  0  0  0
  -16.0646  -28.4754   27.3815 H   0  0  0  0  0  0  0  0  0  0  0  0
  -15.8370  -26.6089   25.8161 H   0  0  0  0  0  0  0  0  0  0  0  0
  -16.1628  -28.1226   24.9587 H   0  0  0  0  0  0  0  0  0  0  0  0
  -13.5271  -25.6024   20.3713 H   0  0  0  0  0  0  0  0  0  0  0  0
  -13.4303  -27.3924   20.1987 H   0  0  0  0  0  0  0  0  0  0  0  0
  -13.6078  -26.2004   18.0618 H   0  0  0  0  0  0  0  0  0  0  0  0
  -15.0814  -26.5171   16.0944 H   0  0  0  0  0  0  0  0  0  0  0  0
  -17.4220  -27.3067   16.5108 H   0  0  0  0  0  0  0  0  0  0  0  0
  -16.8814  -27.4501   20.6005 H   0  0  0  0  0  0  0  0  0  0  0  0
  -12.2048  -26.3331   25.4577 H   0  0  0  0  0  0  0  0  0  0  0  0
  -13.6826  -25.3957   25.7932 H   0  0  0  0  0  0  0  0  0  0  0  0
  1  2  1  0
  2  3  1  0
  3  4  1  0
  4  5  2  0
  4  6  1  0
  6  7  2  0
  7  8  1  0
  8  9  1  0
  9 10  1  0
 10 11  1  0
 11 12  2  0
 11 13  2  0
 11 14  1  0
 14 15  1  0
 15 16  2  0
 16 17  1  0
 17 18  2  0
 18 19  1  0
 19 20  2  0
 10 21  1  0
 21  6  1  0
 20 15  1  0
  1 22  1  0
  1 23  1  0
  1 24  1  0
  2 25  1  0
  2 26  1  0
  7 27  1  0
  8 28  1  0
  8 29  1  0
  9 30  1  0
  9 31  1  0
 14 32  1  0
 14 33  1  0
 16 34  1  0
 17 35  1  0
 18 36  1  0
 20 37  1  0
 21 38  1  0
 21 39  1  0
M  END
>  <Energy>  (772) 
202.45273646101043

>  <compound_id>  (772) 
87536

>  <target_id>  (772) 
1

>  <reference_id>  (772) 
48

>  <inspiration_ids>  (772) 
[123, 48]

>  <energy_score>  (772) 
173.31080039713487

>  <distance_score>  (772) 
8.160110155624945

>  <path>  (772) 
/opt/xchem-fragalysis-2/maxwin/BulkDock/SCRATCH/511017/C87536-P48/C87536-P48.minimised.mol

>  <scratch_subdir>  (772) 
/opt/xchem-fragalysis-2/maxwin/BulkDock/SCRATCH/511017/C87536-P48

>  <fragmenstein_runtime>  (772) 
7.540127992630005

>  <fragmenstein_outcome>  (772) 
too moved

>  <fragmenstein_mode>  (772) 
expansion

>  <fragmenstein_error>  (772) 


$$$$
C87537-P123
     RDKit          3D

 44 45  0  0  0  0  0  0  0  0999 V2000
  -12.2666  -21.0640   23.2043 C   0  0  0  0  0  0  0  0  0  0  0  0
  -11.1839  -22.0498   22.8328 C   0  0  0  0  0  0  0  0  0  0  0  0
  -11.2591  -23.1568   23.7816 O   0  0  0  0  0  0  0  0  0  0  0  0
  -10.2197  -23.9411   24.3321 C   0  0  0  0  0  0  0  0  0  0  0  0
  -10.5809  -24.6645   25.2630 O   0  0  0  0  0  0  0  0  0  0  0  0
   -8.7493  -23.8581   23.6295 C   0  0  0  0  0  0  0  0  0  0  0  0
   -7.3640  -23.9419   23.6550 N   0  0  0  0  0  0  0  0  0  0  0  0
   -7.0046  -24.3770   22.0853 N   0  0  0  0  0  0  0  0  0  0  0  0
   -8.5217  -24.5910   21.2640 C   0  0  0  0  0  0  0  0  0  0  0  0
  -10.0378  -25.7902   20.3408 C   0  0  0  0  0  0  0  0  0  0  0  0
  -10.9031  -26.6129   18.5022 N   0  0  0  0  0  0  0  0  0  0  0  0
  -10.4789  -26.7202   16.7073 C   0  0  0  0  0  0  0  0  0  0  0  0
  -10.6591  -25.8385   15.3986 C   0  0  0  0  0  0  0  0  0  0  0  0
  -10.8316  -26.6298   14.2158 O   0  0  0  0  0  0  0  0  0  0  0  0
  -10.8641  -25.7961   13.0563 C   0  0  0  0  0  0  0  0  0  0  0  0
  -12.6319  -26.5137   17.8273 C   0  0  0  0  0  0  0  0  0  0  0  0
  -13.2199  -26.6535   16.3953 C   0  0  0  0  0  0  0  0  0  0  0  0
  -13.2123  -27.8384   15.6371 C   0  0  0  0  0  0  0  0  0  0  0  0
  -13.7663  -27.8722   14.3514 C   0  0  0  0  0  0  0  0  0  0  0  0
  -14.3783  -26.7314   13.8673 C   0  0  0  0  0  0  0  0  0  0  0  0
  -14.5140  -25.6048   14.5947 N   0  0  0  0  0  0  0  0  0  0  0  0
  -13.9691  -25.6125   15.8397 C   0  0  0  0  0  0  0  0  0  0  0  0
   -8.9133  -23.5612   22.4313 N   0  0  0  0  0  0  0  0  0  0  0  0
  -12.3084  -20.2421   22.4838 H   0  0  0  0  0  0  0  0  0  0  0  0
  -13.2454  -21.5533   23.2370 H   0  0  0  0  0  0  0  0  0  0  0  0
  -12.0750  -20.6459   24.1890 H   0  0  0  0  0  0  0  0  0  0  0  0
  -10.2087  -21.5684   22.8239 H   0  0  0  0  0  0  0  0  0  0  0  0
  -11.4267  -22.3974   21.8277 H   0  0  0  0  0  0  0  0  0  0  0  0
   -6.2010  -24.9685   21.8982 H   0  0  0  0  0  0  0  0  0  0  0  0
  -10.4959  -26.5977   20.9129 H   0  0  0  0  0  0  0  0  0  0  0  0
  -10.8413  -24.9515   20.1714 H   0  0  0  0  0  0  0  0  0  0  0  0
   -9.4498  -26.9913   16.5030 H   0  0  0  0  0  0  0  0  0  0  0  0
  -10.9695  -27.6703   16.4821 H   0  0  0  0  0  0  0  0  0  0  0  0
   -9.7311  -25.3080   15.1860 H   0  0  0  0  0  0  0  0  0  0  0  0
  -11.4723  -25.1387   15.4750 H   0  0  0  0  0  0  0  0  0  0  0  0
   -9.9019  -25.2939   12.9180 H   0  0  0  0  0  0  0  0  0  0  0  0
  -11.6687  -25.0584   13.1319 H   0  0  0  0  0  0  0  0  0  0  0  0
  -11.0525  -26.4312   12.1867 H   0  0  0  0  0  0  0  0  0  0  0  0
  -13.2049  -25.7078   18.3181 H   0  0  0  0  0  0  0  0  0  0  0  0
  -13.0129  -27.4750   18.1616 H   0  0  0  0  0  0  0  0  0  0  0  0
  -12.7475  -28.7426   16.0249 H   0  0  0  0  0  0  0  0  0  0  0  0
  -13.7081  -28.7694   13.7456 H   0  0  0  0  0  0  0  0  0  0  0  0
  -14.8079  -26.7016   12.8709 H   0  0  0  0  0  0  0  0  0  0  0  0
  -14.1625  -24.7046   16.4065 H   0  0  0  0  0  0  0  0  0  0  0  0
  1  2  1  0
  2  3  1  0
  3  4  1  0
  4  5  2  0
  4  6  1  0
  6  7  2  0
  7  8  1  0
  8  9  1  0
  9 10  1  0
 10 11  1  0
 11 12  1  0
 12 13  1  0
 13 14  1  0
 14 15  1  0
 11 16  1  0
 16 17  1  0
 17 18  2  0
 18 19  1  0
 19 20  2  0
 20 21  1  0
 21 22  2  0
  9 23  2  0
 23  6  1  0
 22 17  1  0
  1 24  1  0
  1 25  1  0
  1 26  1  0
  2 27  1  0
  2 28  1  0
  8 29  1  0
 10 30  1  0
 10 31  1  0
 12 32  1  0
 12 33  1  0
 13 34  1  0
 13 35  1  0
 15 36  1  0
 15 37  1  0
 15 38  1  0
 16 39  1  0
 16 40  1  0
 18 41  1  0
 19 42  1  0
 20 43  1  0
 22 44  1  0
M  END
>  <Energy>  (773) 
880.33212667365194

>  <compound_id>  (773) 
87537

>  <target_id>  (773) 
1

>  <reference_id>  (773) 
123

>  <inspiration_ids>  (773) 
[123, 48]

>  <energy_score>  (773) 
695.994085864324

>  <distance_score>  (773) 
7.338710577466852

>  <path>  (773) 
/opt/xchem-fragalysis-2/maxwin/BulkDock/SCRATCH/511017/C87537-P123/C87537-P123.minimised.mol

>  <scratch_subdir>  (773) 
/opt/xchem-fragalysis-2/maxwin/BulkDock/SCRATCH/511017/C87537-P123

>  <fragmenstein_runtime>  (773) 
16.749876022338867

>  <fragmenstein_outcome>  (773) 
too moved

>  <fragmenstein_mode>  (773) 
expansion

>  <fragmenstein_error>  (773) 


$$$$
C87537-P48
     RDKit          3D

 44 45  0  0  0  0  0  0  0  0999 V2000
  -16.4133  -26.4696   23.6870 C   0  0  0  0  0  0  0  0  0  0  0  0
  -17.2271  -26.6999   22.3501 C   0  0  0  0  0  0  0  0  0  0  0  0
  -16.3947  -27.2987   21.3208 O   0  0  0  0  0  0  0  0  0  0  0  0
  -16.5879  -27.0096   19.9716 C   0  0  0  0  0  0  0  0  0  0  0  0
  -17.7047  -26.8373   19.4944 O   0  0  0  0  0  0  0  0  0  0  0  0
  -15.2823  -26.8268   19.2015 C   0  0  0  0  0  0  0  0  0  0  0  0
  -14.1329  -26.5517   19.8291 N   0  0  0  0  0  0  0  0  0  0  0  0
  -13.2478  -26.3349   18.8512 N   0  0  0  0  0  0  0  0  0  0  0  0
  -13.8090  -26.4382   17.6038 C   0  0  0  0  0  0  0  0  0  0  0  0
  -12.9839  -26.7517   16.1567 C   0  0  0  0  0  0  0  0  0  0  0  0
  -12.7753  -25.8237   14.8059 N   0  0  0  0  0  0  0  0  0  0  0  0
  -11.2937  -25.5464   14.6647 C   0  0  0  0  0  0  0  0  0  0  0  0
  -10.6462  -24.6247   13.5920 C   0  0  0  0  0  0  0  0  0  0  0  0
  -11.0910  -23.2837   13.6529 O   0  0  0  0  0  0  0  0  0  0  0  0
  -10.1839  -22.3916   13.0291 C   0  0  0  0  0  0  0  0  0  0  0  0
  -13.1787  -26.6349   13.5666 C   0  0  0  0  0  0  0  0  0  0  0  0
  -12.9380  -26.1512   12.1208 C   0  0  0  0  0  0  0  0  0  0  0  0
  -12.3720  -27.0097   11.1516 C   0  0  0  0  0  0  0  0  0  0  0  0
  -12.2334  -26.6135    9.8126 C   0  0  0  0  0  0  0  0  0  0  0  0
  -12.6769  -25.3559    9.4551 C   0  0  0  0  0  0  0  0  0  0  0  0
  -13.2341  -24.4999   10.3375 N   0  0  0  0  0  0  0  0  0  0  0  0
  -13.3524  -24.9128   11.6370 C   0  0  0  0  0  0  0  0  0  0  0  0
  -15.1022  -26.6931   17.8449 N   0  0  0  0  0  0  0  0  0  0  0  0
  -16.5793  -27.3267   24.3485 H   0  0  0  0  0  0  0  0  0  0  0  0
  -16.8071  -25.5919   24.2084 H   0  0  0  0  0  0  0  0  0  0  0  0
  -15.3391  -26.3691   23.5396 H   0  0  0  0  0  0  0  0  0  0  0  0
  -17.6147  -25.7419   21.9904 H   0  0  0  0  0  0  0  0  0  0  0  0
  -18.0685  -27.3721   22.5447 H   0  0  0  0  0  0  0  0  0  0  0  0
  -12.2732  -26.2464   19.1132 H   0  0  0  0  0  0  0  0  0  0  0  0
  -11.9871  -27.0827   16.4786 H   0  0  0  0  0  0  0  0  0  0  0  0
  -13.5036  -27.6534   15.8036 H   0  0  0  0  0  0  0  0  0  0  0  0
  -11.0113  -25.1147   15.6197 H   0  0  0  0  0  0  0  0  0  0  0  0
  -10.7723  -26.5120   14.6030 H   0  0  0  0  0  0  0  0  0  0  0  0
   -9.5725  -24.6506   13.7962 H   0  0  0  0  0  0  0  0  0  0  0  0
  -10.7552  -25.0084   12.5782 H   0  0  0  0  0  0  0  0  0  0  0  0
  -10.5680  -21.3769   13.1448 H   0  0  0  0  0  0  0  0  0  0  0  0
  -10.1157  -22.6184   11.9631 H   0  0  0  0  0  0  0  0  0  0  0  0
   -9.1983  -22.4487   13.4966 H   0  0  0  0  0  0  0  0  0  0  0  0
  -12.7028  -27.6211   13.6587 H   0  0  0  0  0  0  0  0  0  0  0  0
  -14.2599  -26.8062   13.6495 H   0  0  0  0  0  0  0  0  0  0  0  0
  -12.0417  -28.0070   11.4344 H   0  0  0  0  0  0  0  0  0  0  0  0
  -11.7934  -27.2753    9.0751 H   0  0  0  0  0  0  0  0  0  0  0  0
  -12.5909  -24.9906    8.4361 H   0  0  0  0  0  0  0  0  0  0  0  0
  -13.8053  -24.1827   12.3056 H   0  0  0  0  0  0  0  0  0  0  0  0
  1  2  1  0
  2  3  1  0
  3  4  1  0
  4  5  2  0
  4  6  1  0
  6  7  2  0
  7  8  1  0
  8  9  1  0
  9 10  1  0
 10 11  1  0
 11 12  1  0
 12 13  1  0
 13 14  1  0
 14 15  1  0
 11 16  1  0
 16 17  1  0
 17 18  2  0
 18 19  1  0
 19 20  2  0
 20 21  1  0
 21 22  2  0
  9 23  2  0
 23  6  1  0
 22 17  1  0
  1 24  1  0
  1 25  1  0
  1 26  1  0
  2 27  1  0
  2 28  1  0
  8 29  1  0
 10 30  1  0
 10 31  1  0
 12 32  1  0
 12 33  1  0
 13 34  1  0
 13 35  1  0
 15 36  1  0
 15 37  1  0
 15 38  1  0
 16 39  1  0
 16 40  1  0
 18 41  1  0
 19 42  1  0
 20 43  1  0
 22 44  1  0
M  END
>  <Energy>  (774) 
193.73686617061216

>  <compound_id>  (774) 
87537

>  <target_id>  (774) 
1

>  <reference_id>  (774) 
48

>  <inspiration_ids>  (774) 
[123, 48]

>  <energy_score>  (774) 
31.757462013986583

>  <distance_score>  (774) 
8.30891487136004

>  <path>  (774) 
/opt/xchem-fragalysis-2/maxwin/BulkDock/SCRATCH/511017/C87537-P48/C87537-P48.minimised.mol

>  <scratch_subdir>  (774) 
/opt/xchem-fragalysis-2/maxwin/BulkDock/SCRATCH/511017/C87537-P48

>  <fragmenstein_runtime>  (774) 
11.62948489189148

>  <fragmenstein_outcome>  (774) 
too moved

>  <fragmenstein_mode>  (774) 
expansion

>  <fragmenstein_error>  (774) 


$$$$
C87538-P123
     RDKit          3D

 44 45  0  0  0  0  0  0  0  0999 V2000
  -11.7804  -24.6216   30.1500 C   0  0  0  0  0  0  0  0  0  0  0  0
  -12.5297  -23.9318   29.0307 C   0  0  0  0  0  0  0  0  0  0  0  0
  -12.2038  -24.6104   27.8144 O   0  0  0  0  0  0  0  0  0  0  0  0
  -13.1340  -25.4009   27.2127 C   0  0  0  0  0  0  0  0  0  0  0  0
  -14.3146  -25.4933   27.5270 O   0  0  0  0  0  0  0  0  0  0  0  0
  -12.5290  -26.1242   26.1025 C   0  0  0  0  0  0  0  0  0  0  0  0
  -13.0533  -26.5076   24.8294 C   0  0  0  0  0  0  0  0  0  0  0  0
  -11.9190  -26.8838   24.0883 C   0  0  0  0  0  0  0  0  0  0  0  0
  -11.3463  -27.5848   22.3639 C   0  0  0  0  0  0  0  0  0  0  0  0
  -10.7312  -26.6292   20.7778 N   0  0  0  0  0  0  0  0  0  0  0  0
  -11.5779  -24.9142   20.1380 C   0  0  0  0  0  0  0  0  0  0  0  0
  -13.2714  -24.8959   19.2616 C   0  0  0  0  0  0  0  0  0  0  0  0
  -13.7243  -23.9877   18.2263 O   0  0  0  0  0  0  0  0  0  0  0  0
  -14.3065  -24.6018   17.0524 C   0  0  0  0  0  0  0  0  0  0  0  0
  -11.1907  -27.8660   19.3631 C   0  0  0  0  0  0  0  0  0  0  0  0
  -12.1838  -27.8586   17.7775 C   0  0  0  0  0  0  0  0  0  0  0  0
  -12.0133  -26.9100   16.7493 C   0  0  0  0  0  0  0  0  0  0  0  0
  -12.4688  -27.1192   15.4359 C   0  0  0  0  0  0  0  0  0  0  0  0
  -13.0985  -28.3043   15.1434 C   0  0  0  0  0  0  0  0  0  0  0  0
  -13.2362  -29.2882   16.0500 N   0  0  0  0  0  0  0  0  0  0  0  0
  -12.7270  -29.0710   17.2978 C   0  0  0  0  0  0  0  0  0  0  0  0
  -10.8984  -27.0241   25.0022 O   0  0  0  0  0  0  0  0  0  0  0  0
  -11.2616  -26.5334   26.2150 N   0  0  0  0  0  0  0  0  0  0  0  0
  -10.7050  -24.6339   29.9460 H   0  0  0  0  0  0  0  0  0  0  0  0
  -12.0865  -25.6687   30.2383 H   0  0  0  0  0  0  0  0  0  0  0  0
  -11.9531  -24.1192   31.1057 H   0  0  0  0  0  0  0  0  0  0  0  0
  -12.1877  -22.8966   28.9324 H   0  0  0  0  0  0  0  0  0  0  0  0
  -13.6049  -23.9110   29.2103 H   0  0  0  0  0  0  0  0  0  0  0  0
  -14.0725  -26.3832   24.4902 H   0  0  0  0  0  0  0  0  0  0  0  0
  -10.8588  -28.3369   23.1205 H   0  0  0  0  0  0  0  0  0  0  0  0
  -10.2350  -27.8829   22.2882 H   0  0  0  0  0  0  0  0  0  0  0  0
  -10.6629  -24.5368   19.7766 H   0  0  0  0  0  0  0  0  0  0  0  0
  -11.6987  -23.9112   20.6070 H   0  0  0  0  0  0  0  0  0  0  0  0
  -13.9224  -24.7918   20.1256 H   0  0  0  0  0  0  0  0  0  0  0  0
  -13.5816  -25.8519   18.8299 H   0  0  0  0  0  0  0  0  0  0  0  0
  -14.9196  -23.8683   16.5294 H   0  0  0  0  0  0  0  0  0  0  0  0
  -13.5395  -24.9369   16.3707 H   0  0  0  0  0  0  0  0  0  0  0  0
  -14.9287  -25.4767   17.2665 H   0  0  0  0  0  0  0  0  0  0  0  0
  -11.2751  -28.7954   19.8656 H   0  0  0  0  0  0  0  0  0  0  0  0
  -10.5511  -27.2012   18.9350 H   0  0  0  0  0  0  0  0  0  0  0  0
  -11.4205  -26.0325   16.9074 H   0  0  0  0  0  0  0  0  0  0  0  0
  -12.3014  -26.3730   14.6664 H   0  0  0  0  0  0  0  0  0  0  0  0
  -13.4825  -28.5174   14.1512 H   0  0  0  0  0  0  0  0  0  0  0  0
  -12.7310  -29.9762   17.9021 H   0  0  0  0  0  0  0  0  0  0  0  0
  1  2  1  0
  2  3  1  0
  3  4  1  0
  4  5  2  0
  4  6  1  0
  6  7  1  0
  7  8  2  0
  8  9  1  0
  9 10  1  0
 10 11  1  0
 11 12  1  0
 12 13  1  0
 13 14  1  0
 10 15  1  0
 15 16  1  0
 16 17  2  0
 17 18  1  0
 18 19  2  0
 19 20  1  0
 20 21  2  0
  8 22  1  0
 22 23  1  0
 23  6  2  0
 21 16  1  0
  1 24  1  0
  1 25  1  0
  1 26  1  0
  2 27  1  0
  2 28  1  0
  7 29  1  0
  9 30  1  0
  9 31  1  0
 11 32  1  0
 11 33  1  0
 12 34  1  0
 12 35  1  0
 14 36  1  0
 14 37  1  0
 14 38  1  0
 15 39  1  0
 15 40  1  0
 17 41  1  0
 18 42  1  0
 19 43  1  0
 21 44  1  0
M  END
>  <Energy>  (775) 
569.72070348716909

>  <compound_id>  (775) 
87538

>  <target_id>  (775) 
1

>  <reference_id>  (775) 
123

>  <inspiration_ids>  (775) 
[123, 48]

>  <energy_score>  (775) 
457.13970549454643

>  <distance_score>  (775) 
7.287664899194298

>  <path>  (775) 
/opt/xchem-fragalysis-2/maxwin/BulkDock/SCRATCH/511017/C87538-P123/C87538-P123.minimised.mol

>  <scratch_subdir>  (775) 
/opt/xchem-fragalysis-2/maxwin/BulkDock/SCRATCH/511017/C87538-P123

>  <fragmenstein_runtime>  (775) 
19.904802799224854

>  <fragmenstein_outcome>  (775) 
too moved

>  <fragmenstein_mode>  (775) 
expansion

>  <fragmenstein_error>  (775) 


$$$$
C87538-P48
     RDKit          3D

 44 45  0  0  0  0  0  0  0  0999 V2000
  -12.6643  -25.4411   26.4570 C   0  0  0  0  0  0  0  0  0  0  0  0
  -13.7272  -24.9486   25.4778 C   0  0  0  0  0  0  0  0  0  0  0  0
  -13.8210  -23.5217   25.2818 O   0  0  0  0  0  0  0  0  0  0  0  0
  -12.6827  -22.7219   25.2594 C   0  0  0  0  0  0  0  0  0  0  0  0
  -12.0237  -22.5835   26.2796 O   0  0  0  0  0  0  0  0  0  0  0  0
  -12.4046  -22.2174   23.8596 C   0  0  0  0  0  0  0  0  0  0  0  0
  -13.2429  -22.6416   22.8488 C   0  0  0  0  0  0  0  0  0  0  0  0
  -12.5566  -22.7839   21.6091 C   0  0  0  0  0  0  0  0  0  0  0  0
  -12.6312  -24.0390   20.2033 C   0  0  0  0  0  0  0  0  0  0  0  0
  -13.6153  -25.1641   19.1061 N   0  0  0  0  0  0  0  0  0  0  0  0
  -12.7595  -26.3268   18.4708 C   0  0  0  0  0  0  0  0  0  0  0  0
  -12.3261  -26.6998   16.9865 C   0  0  0  0  0  0  0  0  0  0  0  0
  -11.7908  -25.6134   16.2478 O   0  0  0  0  0  0  0  0  0  0  0  0
  -11.3216  -25.9793   14.9547 C   0  0  0  0  0  0  0  0  0  0  0  0
  -14.3449  -24.5904   17.8427 C   0  0  0  0  0  0  0  0  0  0  0  0
  -14.8522  -25.4109   16.6422 C   0  0  0  0  0  0  0  0  0  0  0  0
  -15.5162  -26.6335   16.7434 C   0  0  0  0  0  0  0  0  0  0  0  0
  -15.9343  -27.3026   15.5833 C   0  0  0  0  0  0  0  0  0  0  0  0
  -15.7221  -26.7131   14.3461 C   0  0  0  0  0  0  0  0  0  0  0  0
  -15.1563  -25.5050   14.1988 N   0  0  0  0  0  0  0  0  0  0  0  0
  -14.7671  -24.8827   15.3418 C   0  0  0  0  0  0  0  0  0  0  0  0
  -11.4075  -22.0317   21.8611 O   0  0  0  0  0  0  0  0  0  0  0  0
  -11.3339  -21.6775   23.2582 N   0  0  0  0  0  0  0  0  0  0  0  0
  -12.7328  -24.9329   27.4224 H   0  0  0  0  0  0  0  0  0  0  0  0
  -11.6478  -25.2665   26.0942 H   0  0  0  0  0  0  0  0  0  0  0  0
  -12.7753  -26.5175   26.6203 H   0  0  0  0  0  0  0  0  0  0  0  0
  -14.7150  -25.3228   25.7500 H   0  0  0  0  0  0  0  0  0  0  0  0
  -13.6587  -25.4205   24.5043 H   0  0  0  0  0  0  0  0  0  0  0  0
  -14.1528  -23.0901   23.1610 H   0  0  0  0  0  0  0  0  0  0  0  0
  -11.7246  -24.5817   20.4161 H   0  0  0  0  0  0  0  0  0  0  0  0
  -12.6631  -23.1547   19.5843 H   0  0  0  0  0  0  0  0  0  0  0  0
  -13.2092  -27.2415   18.8770 H   0  0  0  0  0  0  0  0  0  0  0  0
  -11.7725  -26.2343   18.8665 H   0  0  0  0  0  0  0  0  0  0  0  0
  -11.5323  -27.4539   17.0791 H   0  0  0  0  0  0  0  0  0  0  0  0
  -13.1119  -27.2059   16.4284 H   0  0  0  0  0  0  0  0  0  0  0  0
  -10.4966  -26.6925   15.0413 H   0  0  0  0  0  0  0  0  0  0  0  0
  -12.1314  -26.4118   14.3603 H   0  0  0  0  0  0  0  0  0  0  0  0
  -10.9558  -25.0799   14.4524 H   0  0  0  0  0  0  0  0  0  0  0  0
  -13.7652  -23.7717   17.4831 H   0  0  0  0  0  0  0  0  0  0  0  0
  -15.2973  -24.1665   18.1193 H   0  0  0  0  0  0  0  0  0  0  0  0
  -15.6903  -27.0806   17.7185 H   0  0  0  0  0  0  0  0  0  0  0  0
  -16.4270  -28.2668   15.6505 H   0  0  0  0  0  0  0  0  0  0  0  0
  -16.0301  -27.2025   13.4274 H   0  0  0  0  0  0  0  0  0  0  0  0
  -14.3711  -23.8902   15.1616 H   0  0  0  0  0  0  0  0  0  0  0  0
  1  2  1  0
  2  3  1  0
  3  4  1  0
  4  5  2  0
  4  6  1  0
  6  7  1  0
  7  8  2  0
  8  9  1  0
  9 10  1  0
 10 11  1  0
 11 12  1  0
 12 13  1  0
 13 14  1  0
 10 15  1  0
 15 16  1  0
 16 17  2  0
 17 18  1  0
 18 19  2  0
 19 20  1  0
 20 21  2  0
  8 22  1  0
 22 23  1  0
 23  6  2  0
 21 16  1  0
  1 24  1  0
  1 25  1  0
  1 26  1  0
  2 27  1  0
  2 28  1  0
  7 29  1  0
  9 30  1  0
  9 31  1  0
 11 32  1  0
 11 33  1  0
 12 34  1  0
 12 35  1  0
 14 36  1  0
 14 37  1  0
 14 38  1  0
 15 39  1  0
 15 40  1  0
 17 41  1  0
 18 42  1  0
 19 43  1  0
 21 44  1  0
M  END
>  <Energy>  (776) 
289.65358311709332

>  <compound_id>  (776) 
87538

>  <target_id>  (776) 
1

>  <reference_id>  (776) 
48

>  <inspiration_ids>  (776) 
[123, 48]

>  <energy_score>  (776) 
177.07258512447356

>  <distance_score>  (776) 
7.464117541843955

>  <path>  (776) 
/opt/xchem-fragalysis-2/maxwin/BulkDock/SCRATCH/511017/C87538-P48/C87538-P48.minimised.mol

>  <scratch_subdir>  (776) 
/opt/xchem-fragalysis-2/maxwin/BulkDock/SCRATCH/511017/C87538-P48

>  <fragmenstein_runtime>  (776) 
6.188177824020386

>  <fragmenstein_outcome>  (776) 
too moved

>  <fragmenstein_mode>  (776) 
expansion

>  <fragmenstein_error>  (776) 


$$$$
C87539-P123
     RDKit          3D

 43 44  0  0  0  0  0  0  0  0999 V2000
   -8.0837  -30.6685   22.3248 C   0  0  0  0  0  0  0  0  0  0  0  0
   -8.4559  -31.4237   21.0559 C   0  0  0  0  0  0  0  0  0  0  0  0
   -9.0196  -30.4899   20.1264 O   0  0  0  0  0  0  0  0  0  0  0  0
   -9.1859  -30.9386   18.8468 C   0  0  0  0  0  0  0  0  0  0  0  0
   -8.8448  -32.0528   18.4652 O   0  0  0  0  0  0  0  0  0  0  0  0
   -9.7727  -29.8926   18.0388 C   0  0  0  0  0  0  0  0  0  0  0  0
   -9.5883  -29.6757   16.7550 N   0  0  0  0  0  0  0  0  0  0  0  0
  -10.3125  -28.5238   16.5151 C   0  0  0  0  0  0  0  0  0  0  0  0
  -10.1620  -27.7591   15.1975 C   0  0  0  0  0  0  0  0  0  0  0  0
  -11.4288  -27.3605   14.5609 N   0  0  0  0  0  0  0  0  0  0  0  0
  -11.6509  -25.9176   14.4370 C   0  0  0  0  0  0  0  0  0  0  0  0
  -10.5811  -25.0677   13.7229 C   0  0  0  0  0  0  0  0  0  0  0  0
  -11.1576  -23.8380   13.2804 O   0  0  0  0  0  0  0  0  0  0  0  0
  -10.1499  -22.8864   12.9508 C   0  0  0  0  0  0  0  0  0  0  0  0
  -11.8980  -28.1757   13.4360 C   0  0  0  0  0  0  0  0  0  0  0  0
  -11.6401  -27.6793   12.0296 C   0  0  0  0  0  0  0  0  0  0  0  0
  -10.4748  -27.9957   11.3280 C   0  0  0  0  0  0  0  0  0  0  0  0
  -10.2995  -27.5278   10.0246 C   0  0  0  0  0  0  0  0  0  0  0  0
  -11.2977  -26.7524    9.4571 C   0  0  0  0  0  0  0  0  0  0  0  0
  -12.4377  -26.4227   10.0954 N   0  0  0  0  0  0  0  0  0  0  0  0
  -12.5799  -26.8915   11.3590 C   0  0  0  0  0  0  0  0  0  0  0  0
  -10.9597  -28.0693   17.6001 N   0  0  0  0  0  0  0  0  0  0  0  0
  -10.5755  -28.9522   18.6170 O   0  0  0  0  0  0  0  0  0  0  0  0
   -7.7117  -31.3563   23.0892 H   0  0  0  0  0  0  0  0  0  0  0  0
   -8.9334  -30.1169   22.7275 H   0  0  0  0  0  0  0  0  0  0  0  0
   -7.2978  -29.9424   22.0995 H   0  0  0  0  0  0  0  0  0  0  0  0
   -7.5612  -31.8944   20.6339 H   0  0  0  0  0  0  0  0  0  0  0  0
   -9.2037  -32.1904   21.2842 H   0  0  0  0  0  0  0  0  0  0  0  0
   -9.5441  -26.8836   15.4247 H   0  0  0  0  0  0  0  0  0  0  0  0
   -9.5601  -28.3635   14.5073 H   0  0  0  0  0  0  0  0  0  0  0  0
  -11.7453  -25.5345   15.4592 H   0  0  0  0  0  0  0  0  0  0  0  0
  -12.6394  -25.7237   14.0019 H   0  0  0  0  0  0  0  0  0  0  0  0
   -9.7744  -24.8616   14.4262 H   0  0  0  0  0  0  0  0  0  0  0  0
  -10.1553  -25.5754   12.8553 H   0  0  0  0  0  0  0  0  0  0  0  0
   -9.5697  -22.6291   13.8414 H   0  0  0  0  0  0  0  0  0  0  0  0
   -9.4968  -23.2758   12.1642 H   0  0  0  0  0  0  0  0  0  0  0  0
  -10.6345  -21.9805   12.5856 H   0  0  0  0  0  0  0  0  0  0  0  0
  -11.5228  -29.2042   13.5253 H   0  0  0  0  0  0  0  0  0  0  0  0
  -12.9851  -28.2873   13.5514 H   0  0  0  0  0  0  0  0  0  0  0  0
   -9.7022  -28.6070   11.7873 H   0  0  0  0  0  0  0  0  0  0  0  0
   -9.4014  -27.7650    9.4649 H   0  0  0  0  0  0  0  0  0  0  0  0
  -11.2026  -26.3678    8.4462 H   0  0  0  0  0  0  0  0  0  0  0  0
  -13.5125  -26.6029   11.8384 H   0  0  0  0  0  0  0  0  0  0  0  0
  1  2  1  0
  2  3  1  0
  3  4  1  0
  4  5  2  0
  4  6  1  0
  6  7  2  0
  7  8  1  0
  8  9  1  0
  9 10  1  0
 10 11  1  0
 11 12  1  0
 12 13  1  0
 13 14  1  0
 10 15  1  0
 15 16  1  0
 16 17  2  0
 17 18  1  0
 18 19  2  0
 19 20  1  0
 20 21  2  0
  8 22  2  0
 22 23  1  0
 23  6  1  0
 21 16  1  0
  1 24  1  0
  1 25  1  0
  1 26  1  0
  2 27  1  0
  2 28  1  0
  9 29  1  0
  9 30  1  0
 11 31  1  0
 11 32  1  0
 12 33  1  0
 12 34  1  0
 14 35  1  0
 14 36  1  0
 14 37  1  0
 15 38  1  0
 15 39  1  0
 17 40  1  0
 18 41  1  0
 19 42  1  0
 21 43  1  0
M  END
>  <Energy>  (777) 
127.29670523143028

>  <compound_id>  (777) 
87539

>  <target_id>  (777) 
1

>  <reference_id>  (777) 
123

>  <inspiration_ids>  (777) 
[123, 48]

>  <energy_score>  (777) 
-43.26362654579964

>  <distance_score>  (777) 
9.530403193859614

>  <path>  (777) 
/opt/xchem-fragalysis-2/maxwin/BulkDock/SCRATCH/511017/C87539-P123/C87539-P123.minimised.mol

>  <scratch_subdir>  (777) 
/opt/xchem-fragalysis-2/maxwin/BulkDock/SCRATCH/511017/C87539-P123

>  <fragmenstein_runtime>  (777) 
17.27808403968811

>  <fragmenstein_outcome>  (777) 
too moved

>  <fragmenstein_mode>  (777) 
expansion

>  <fragmenstein_error>  (777) 


$$$$
C87539-P48
     RDKit          3D

 43 44  0  0  0  0  0  0  0  0999 V2000
  -16.4391  -26.5640   23.6252 C   0  0  0  0  0  0  0  0  0  0  0  0
  -17.1323  -27.2471   22.3802 C   0  0  0  0  0  0  0  0  0  0  0  0
  -16.5377  -26.7669   21.1469 O   0  0  0  0  0  0  0  0  0  0  0  0
  -16.3489  -27.5301   20.0213 C   0  0  0  0  0  0  0  0  0  0  0  0
  -16.9901  -28.5499   19.7964 O   0  0  0  0  0  0  0  0  0  0  0  0
  -15.2214  -26.9993   19.2172 C   0  0  0  0  0  0  0  0  0  0  0  0
  -14.9455  -27.1752   17.9524 N   0  0  0  0  0  0  0  0  0  0  0  0
  -13.7512  -26.4757   17.7030 C   0  0  0  0  0  0  0  0  0  0  0  0
  -12.8839  -26.7637   16.2577 C   0  0  0  0  0  0  0  0  0  0  0  0
  -12.7525  -25.8317   14.8750 N   0  0  0  0  0  0  0  0  0  0  0  0
  -11.2744  -25.5373   14.6919 C   0  0  0  0  0  0  0  0  0  0  0  0
  -10.6520  -24.6235   13.5979 C   0  0  0  0  0  0  0  0  0  0  0  0
  -11.1109  -23.2857   13.6449 O   0  0  0  0  0  0  0  0  0  0  0  0
  -10.1895  -22.3869   13.0512 C   0  0  0  0  0  0  0  0  0  0  0  0
  -13.1650  -26.6632   13.6518 C   0  0  0  0  0  0  0  0  0  0  0  0
  -12.9528  -26.1839   12.1969 C   0  0  0  0  0  0  0  0  0  0  0  0
  -12.3960  -27.0430   11.2226 C   0  0  0  0  0  0  0  0  0  0  0  0
  -12.2714  -26.6488    9.8811 C   0  0  0  0  0  0  0  0  0  0  0  0
  -12.7193  -25.3921    9.5254 C   0  0  0  0  0  0  0  0  0  0  0  0
  -13.2687  -24.5350   10.4119 N   0  0  0  0  0  0  0  0  0  0  0  0
  -13.3743  -24.9471   11.7134 C   0  0  0  0  0  0  0  0  0  0  0  0
  -13.2598  -25.9769   18.8530 N   0  0  0  0  0  0  0  0  0  0  0  0
  -14.1834  -26.3367   19.8271 O   0  0  0  0  0  0  0  0  0  0  0  0
  -16.8007  -25.5347   23.7095 H   0  0  0  0  0  0  0  0  0  0  0  0
  -15.3529  -26.5265   23.5446 H   0  0  0  0  0  0  0  0  0  0  0  0
  -16.7267  -27.0905   24.5399 H   0  0  0  0  0  0  0  0  0  0  0  0
  -17.0356  -28.3345   22.4384 H   0  0  0  0  0  0  0  0  0  0  0  0
  -18.1949  -26.9861   22.3691 H   0  0  0  0  0  0  0  0  0  0  0  0
  -13.2996  -27.7223   15.9198 H   0  0  0  0  0  0  0  0  0  0  0  0
  -11.8628  -26.9694   16.6054 H   0  0  0  0  0  0  0  0  0  0  0  0
  -10.9816  -25.0834   15.6310 H   0  0  0  0  0  0  0  0  0  0  0  0
  -10.7426  -26.4976   14.6371 H   0  0  0  0  0  0  0  0  0  0  0  0
   -9.5753  -24.6370   13.7878 H   0  0  0  0  0  0  0  0  0  0  0  0
  -10.7686  -25.0212   12.5904 H   0  0  0  0  0  0  0  0  0  0  0  0
  -10.5836  -21.3747   13.1539 H   0  0  0  0  0  0  0  0  0  0  0  0
  -10.0846  -22.6132   11.9883 H   0  0  0  0  0  0  0  0  0  0  0  0
   -9.2199  -22.4376   13.5522 H   0  0  0  0  0  0  0  0  0  0  0  0
  -14.2413  -26.8511   13.7559 H   0  0  0  0  0  0  0  0  0  0  0  0
  -12.6705  -27.6400   13.7425 H   0  0  0  0  0  0  0  0  0  0  0  0
  -12.0598  -28.0389   11.5041 H   0  0  0  0  0  0  0  0  0  0  0  0
  -11.8383  -27.3121    9.1408 H   0  0  0  0  0  0  0  0  0  0  0  0
  -12.6446  -25.0293    8.5047 H   0  0  0  0  0  0  0  0  0  0  0  0
  -13.8195  -24.2149   12.3847 H   0  0  0  0  0  0  0  0  0  0  0  0
  1  2  1  0
  2  3  1  0
  3  4  1  0
  4  5  2  0
  4  6  1  0
  6  7  2  0
  7  8  1  0
  8  9  1  0
  9 10  1  0
 10 11  1  0
 11 12  1  0
 12 13  1  0
 13 14  1  0
 10 15  1  0
 15 16  1  0
 16 17  2  0
 17 18  1  0
 18 19  2  0
 19 20  1  0
 20 21  2  0
  8 22  2  0
 22 23  1  0
 23  6  1  0
 21 16  1  0
  1 24  1  0
  1 25  1  0
  1 26  1  0
  2 27  1  0
  2 28  1  0
  9 29  1  0
  9 30  1  0
 11 31  1  0
 11 32  1  0
 12 33  1  0
 12 34  1  0
 14 35  1  0
 14 36  1  0
 14 37  1  0
 15 38  1  0
 15 39  1  0
 17 40  1  0
 18 41  1  0
 19 42  1  0
 21 43  1  0
M  END
>  <Energy>  (778) 
179.32845715514006

>  <compound_id>  (778) 
87539

>  <target_id>  (778) 
1

>  <reference_id>  (778) 
48

>  <inspiration_ids>  (778) 
[123, 48]

>  <energy_score>  (778) 
14.426268216962285

>  <distance_score>  (778) 
8.343503688040363

>  <path>  (778) 
/opt/xchem-fragalysis-2/maxwin/BulkDock/SCRATCH/511017/C87539-P48/C87539-P48.minimised.mol

>  <scratch_subdir>  (778) 
/opt/xchem-fragalysis-2/maxwin/BulkDock/SCRATCH/511017/C87539-P48

>  <fragmenstein_runtime>  (778) 
5.707098007202148

>  <fragmenstein_outcome>  (778) 
too moved

>  <fragmenstein_mode>  (778) 
expansion

>  <fragmenstein_error>  (778) 


$$$$
C87540-P123
     RDKit          3D

 45 46  0  0  0  0  0  0  0  0999 V2000
  -16.8122  -23.6674   24.7226 C   0  0  0  0  0  0  0  0  0  0  0  0
  -16.4552  -22.3342   24.0707 C   0  0  0  0  0  0  0  0  0  0  0  0
  -15.1036  -22.1201   23.5500 O   0  0  0  0  0  0  0  0  0  0  0  0
  -14.1394  -23.0715   23.3107 C   0  0  0  0  0  0  0  0  0  0  0  0
  -14.2001  -24.1661   23.8540 O   0  0  0  0  0  0  0  0  0  0  0  0
  -13.0986  -22.6291   22.2817 C   0  0  0  0  0  0  0  0  0  0  0  0
  -12.0107  -21.8448   22.7594 C   0  0  0  0  0  0  0  0  0  0  0  0
  -11.1318  -21.7603   21.7314 C   0  0  0  0  0  0  0  0  0  0  0  0
  -11.6069  -22.2584   20.5769 O   0  0  0  0  0  0  0  0  0  0  0  0
  -12.7945  -22.9316   20.7576 C   0  0  0  0  0  0  0  0  0  0  0  0
  -13.1776  -24.3438   19.4940 C   0  0  0  0  0  0  0  0  0  0  0  0
  -13.8400  -24.9602   17.9001 N   0  0  0  0  0  0  0  0  0  0  0  0
  -13.4060  -26.3003   17.4067 C   0  0  0  0  0  0  0  0  0  0  0  0
  -12.1988  -26.5494   16.4549 C   0  0  0  0  0  0  0  0  0  0  0  0
  -12.0959  -25.6275   15.3810 O   0  0  0  0  0  0  0  0  0  0  0  0
  -11.0228  -25.9206   14.4938 C   0  0  0  0  0  0  0  0  0  0  0  0
  -14.6768  -24.2708   16.8441 C   0  0  0  0  0  0  0  0  0  0  0  0
  -15.0251  -24.9009   15.4568 C   0  0  0  0  0  0  0  0  0  0  0  0
  -15.8432  -26.0262   15.3022 C   0  0  0  0  0  0  0  0  0  0  0  0
  -16.1197  -26.5493   14.0305 C   0  0  0  0  0  0  0  0  0  0  0  0
  -15.6245  -25.8985   12.9154 C   0  0  0  0  0  0  0  0  0  0  0  0
  -14.9106  -24.7661   12.9932 N   0  0  0  0  0  0  0  0  0  0  0  0
  -14.6458  -24.3036   14.2467 C   0  0  0  0  0  0  0  0  0  0  0  0
  -17.0745  -24.4412   23.9958 H   0  0  0  0  0  0  0  0  0  0  0  0
  -17.7187  -23.5400   25.3229 H   0  0  0  0  0  0  0  0  0  0  0  0
  -16.0148  -24.0825   25.3346 H   0  0  0  0  0  0  0  0  0  0  0  0
  -16.6576  -21.4718   24.7048 H   0  0  0  0  0  0  0  0  0  0  0  0
  -17.1446  -22.1808   23.2301 H   0  0  0  0  0  0  0  0  0  0  0  0
  -11.8762  -21.4779   23.7645 H   0  0  0  0  0  0  0  0  0  0  0  0
  -10.1063  -21.4539   21.6709 H   0  0  0  0  0  0  0  0  0  0  0  0
  -13.9700  -24.7906   20.0846 H   0  0  0  0  0  0  0  0  0  0  0  0
  -13.2494  -23.4509   18.8664 H   0  0  0  0  0  0  0  0  0  0  0  0
  -14.2567  -26.7654   16.9125 H   0  0  0  0  0  0  0  0  0  0  0  0
  -13.3471  -27.0104   18.2105 H   0  0  0  0  0  0  0  0  0  0  0  0
  -12.3135  -27.5568   16.0340 H   0  0  0  0  0  0  0  0  0  0  0  0
  -11.2747  -26.5587   17.0250 H   0  0  0  0  0  0  0  0  0  0  0  0
  -10.0755  -26.0001   15.0336 H   0  0  0  0  0  0  0  0  0  0  0  0
  -11.2248  -26.8550   13.9618 H   0  0  0  0  0  0  0  0  0  0  0  0
  -10.9481  -25.1108   13.7635 H   0  0  0  0  0  0  0  0  0  0  0  0
  -14.2116  -23.3352   16.6244 H   0  0  0  0  0  0  0  0  0  0  0  0
  -15.6664  -24.0185   17.2234 H   0  0  0  0  0  0  0  0  0  0  0  0
  -16.2729  -26.5143   16.1739 H   0  0  0  0  0  0  0  0  0  0  0  0
  -16.7273  -27.4407   13.9195 H   0  0  0  0  0  0  0  0  0  0  0  0
  -15.8156  -26.2673   11.9128 H   0  0  0  0  0  0  0  0  0  0  0  0
  -14.1073  -23.3689   14.2225 H   0  0  0  0  0  0  0  0  0  0  0  0
  1  2  1  0
  2  3  1  0
  3  4  1  0
  4  5  2  0
  4  6  1  0
  6  7  1  0
  7  8  2  0
  8  9  1  0
  9 10  1  0
 10 11  1  0
 11 12  1  0
 12 13  1  0
 13 14  1  0
 14 15  1  0
 15 16  1  0
 12 17  1  0
 17 18  1  0
 18 19  2  0
 19 20  1  0
 20 21  2  0
 21 22  1  0
 22 23  2  0
 10  6  2  0
 23 18  1  0
  1 24  1  0
  1 25  1  0
  1 26  1  0
  2 27  1  0
  2 28  1  0
  7 29  1  0
  8 30  1  0
 11 31  1  0
 11 32  1  0
 13 33  1  0
 13 34  1  0
 14 35  1  0
 14 36  1  0
 16 37  1  0
 16 38  1  0
 16 39  1  0
 17 40  1  0
 17 41  1  0
 19 42  1  0
 20 43  1  0
 21 44  1  0
 23 45  1  0
M  END
>  <Energy>  (779) 
293.77279806154235

>  <compound_id>  (779) 
87540

>  <target_id>  (779) 
1

>  <reference_id>  (779) 
123

>  <inspiration_ids>  (779) 
[123, 48]

>  <energy_score>  (779) 
190.3336105793532

>  <distance_score>  (779) 
7.733352575083434

>  <path>  (779) 
/opt/xchem-fragalysis-2/maxwin/BulkDock/SCRATCH/511017/C87540-P123/C87540-P123.minimised.mol

>  <scratch_subdir>  (779) 
/opt/xchem-fragalysis-2/maxwin/BulkDock/SCRATCH/511017/C87540-P123

>  <fragmenstein_runtime>  (779) 
20.78938937187195

>  <fragmenstein_outcome>  (779) 
too moved

>  <fragmenstein_mode>  (779) 
expansion

>  <fragmenstein_error>  (779) 


$$$$
C87540-P48
     RDKit          3D

 45 46  0  0  0  0  0  0  0  0999 V2000
  -17.1303  -26.8970   21.8144 C   0  0  0  0  0  0  0  0  0  0  0  0
  -17.4856  -26.8676   20.2784 C   0  0  0  0  0  0  0  0  0  0  0  0
  -16.2747  -26.9837   19.4913 O   0  0  0  0  0  0  0  0  0  0  0  0
  -16.0918  -26.4932   18.2071 C   0  0  0  0  0  0  0  0  0  0  0  0
  -16.9749  -26.1365   17.4454 O   0  0  0  0  0  0  0  0  0  0  0  0
  -14.6481  -26.3797   17.9582 C   0  0  0  0  0  0  0  0  0  0  0  0
  -13.7572  -26.5616   19.0580 C   0  0  0  0  0  0  0  0  0  0  0  0
  -12.5244  -26.6724   18.5284 C   0  0  0  0  0  0  0  0  0  0  0  0
  -12.5149  -26.2395   17.2764 O   0  0  0  0  0  0  0  0  0  0  0  0
  -13.8038  -26.0905   16.8666 C   0  0  0  0  0  0  0  0  0  0  0  0
  -13.9704  -25.6964   15.3122 C   0  0  0  0  0  0  0  0  0  0  0  0
  -12.9816  -26.0445   14.1247 N   0  0  0  0  0  0  0  0  0  0  0  0
  -11.5860  -25.5182   14.1339 C   0  0  0  0  0  0  0  0  0  0  0  0
  -11.2921  -24.0262   13.8799 C   0  0  0  0  0  0  0  0  0  0  0  0
  -10.5103  -23.7010   12.7322 O   0  0  0  0  0  0  0  0  0  0  0  0
   -9.9836  -22.3853   12.8922 C   0  0  0  0  0  0  0  0  0  0  0  0
  -13.6631  -25.7107   12.8239 C   0  0  0  0  0  0  0  0  0  0  0  0
  -12.9858  -25.7707   11.4552 C   0  0  0  0  0  0  0  0  0  0  0  0
  -12.2414  -26.8399   10.9568 C   0  0  0  0  0  0  0  0  0  0  0  0
  -11.7977  -26.8293    9.6240 C   0  0  0  0  0  0  0  0  0  0  0  0
  -12.1213  -25.7512    8.8135 C   0  0  0  0  0  0  0  0  0  0  0  0
  -12.8573  -24.7085    9.2396 N   0  0  0  0  0  0  0  0  0  0  0  0
  -13.2639  -24.7526   10.5332 C   0  0  0  0  0  0  0  0  0  0  0  0
  -16.2917  -27.5494   22.0149 H   0  0  0  0  0  0  0  0  0  0  0  0
  -16.9518  -25.9076   22.2188 H   0  0  0  0  0  0  0  0  0  0  0  0
  -18.0013  -27.2801   22.3578 H   0  0  0  0  0  0  0  0  0  0  0  0
  -18.0287  -25.9542   20.0194 H   0  0  0  0  0  0  0  0  0  0  0  0
  -18.1063  -27.7370   20.0408 H   0  0  0  0  0  0  0  0  0  0  0  0
  -14.0384  -26.7143   20.0646 H   0  0  0  0  0  0  0  0  0  0  0  0
  -11.5525  -26.9326   18.8476 H   0  0  0  0  0  0  0  0  0  0  0  0
  -14.9131  -26.1919   15.0403 H   0  0  0  0  0  0  0  0  0  0  0  0
  -14.1686  -24.6197   15.2814 H   0  0  0  0  0  0  0  0  0  0  0  0
  -10.9912  -26.1154   13.4328 H   0  0  0  0  0  0  0  0  0  0  0  0
  -11.1732  -25.7752   15.1167 H   0  0  0  0  0  0  0  0  0  0  0  0
  -10.7214  -23.6865   14.7475 H   0  0  0  0  0  0  0  0  0  0  0  0
  -12.2335  -23.4862   13.7814 H   0  0  0  0  0  0  0  0  0  0  0  0
   -9.1441  -22.4110   13.5901 H   0  0  0  0  0  0  0  0  0  0  0  0
  -10.7480  -21.6886   13.2453 H   0  0  0  0  0  0  0  0  0  0  0  0
   -9.6405  -22.0199   11.9275 H   0  0  0  0  0  0  0  0  0  0  0  0
  -14.5357  -26.3732   12.7442 H   0  0  0  0  0  0  0  0  0  0  0  0
  -14.0696  -24.6960   12.9356 H   0  0  0  0  0  0  0  0  0  0  0  0
  -12.0114  -27.6883   11.5966 H   0  0  0  0  0  0  0  0  0  0  0  0
  -11.2051  -27.6496    9.2337 H   0  0  0  0  0  0  0  0  0  0  0  0
  -11.7818  -25.6966    7.7835 H   0  0  0  0  0  0  0  0  0  0  0  0
  -13.8834  -23.9071   10.8192 H   0  0  0  0  0  0  0  0  0  0  0  0
  1  2  1  0
  2  3  1  0
  3  4  1  0
  4  5  2  0
  4  6  1  0
  6  7  1  0
  7  8  2  0
  8  9  1  0
  9 10  1  0
 10 11  1  0
 11 12  1  0
 12 13  1  0
 13 14  1  0
 14 15  1  0
 15 16  1  0
 12 17  1  0
 17 18  1  0
 18 19  2  0
 19 20  1  0
 20 21  2  0
 21 22  1  0
 22 23  2  0
 10  6  2  0
 23 18  1  0
  1 24  1  0
  1 25  1  0
  1 26  1  0
  2 27  1  0
  2 28  1  0
  7 29  1  0
  8 30  1  0
 11 31  1  0
 11 32  1  0
 13 33  1  0
 13 34  1  0
 14 35  1  0
 14 36  1  0
 16 37  1  0
 16 38  1  0
 16 39  1  0
 17 40  1  0
 17 41  1  0
 19 42  1  0
 20 43  1  0
 21 44  1  0
 23 45  1  0
M  END
>  <Energy>  (780) 
102.79202426731356

>  <compound_id>  (780) 
87540

>  <target_id>  (780) 
1

>  <reference_id>  (780) 
48

>  <inspiration_ids>  (780) 
[123, 48]

>  <energy_score>  (780) 
7.999905576569063

>  <distance_score>  (780) 
8.841795612402182

>  <path>  (780) 
/opt/xchem-fragalysis-2/maxwin/BulkDock/SCRATCH/511017/C87540-P48/C87540-P48.minimised.mol

>  <scratch_subdir>  (780) 
/opt/xchem-fragalysis-2/maxwin/BulkDock/SCRATCH/511017/C87540-P48

>  <fragmenstein_runtime>  (780) 
6.851868391036987

>  <fragmenstein_outcome>  (780) 
too moved

>  <fragmenstein_mode>  (780) 
expansion

>  <fragmenstein_error>  (780) 


$$$$
C87541-P123
     RDKit          3D

 44 45  0  0  0  0  0  0  0  0999 V2000
  -11.9602  -24.4943   26.4477 C   0  0  0  0  0  0  0  0  0  0  0  0
  -13.1285  -25.4214   26.7244 C   0  0  0  0  0  0  0  0  0  0  0  0
  -14.1007  -25.3678   25.6637 O   0  0  0  0  0  0  0  0  0  0  0  0
  -13.8569  -26.1541   24.5741 C   0  0  0  0  0  0  0  0  0  0  0  0
  -12.8568  -26.8521   24.4557 O   0  0  0  0  0  0  0  0  0  0  0  0
  -14.9398  -26.1081   23.5898 C   0  0  0  0  0  0  0  0  0  0  0  0
  -16.2482  -26.1763   24.1520 C   0  0  0  0  0  0  0  0  0  0  0  0
  -17.2036  -26.2221   23.2536 N   0  0  0  0  0  0  0  0  0  0  0  0
  -16.5891  -26.1839   22.0330 O   0  0  0  0  0  0  0  0  0  0  0  0
  -15.0946  -26.0753   22.1158 C   0  0  0  0  0  0  0  0  0  0  0  0
  -14.3216  -25.6531   20.3643 C   0  0  0  0  0  0  0  0  0  0  0  0
  -14.3428  -26.2491   18.5455 N   0  0  0  0  0  0  0  0  0  0  0  0
  -13.7170  -25.3824   17.5547 C   0  0  0  0  0  0  0  0  0  0  0  0
  -12.6102  -26.1742   16.7518 C   0  0  0  0  0  0  0  0  0  0  0  0
  -12.3583  -25.5865   15.4774 O   0  0  0  0  0  0  0  0  0  0  0  0
  -11.3137  -26.2212   14.7558 C   0  0  0  0  0  0  0  0  0  0  0  0
  -15.6409  -26.7190   17.7005 C   0  0  0  0  0  0  0  0  0  0  0  0
  -15.4343  -27.2229   16.2428 C   0  0  0  0  0  0  0  0  0  0  0  0
  -14.9227  -28.4831   15.9236 C   0  0  0  0  0  0  0  0  0  0  0  0
  -14.6968  -28.8298   14.5840 C   0  0  0  0  0  0  0  0  0  0  0  0
  -15.0169  -27.9184   13.5891 C   0  0  0  0  0  0  0  0  0  0  0  0
  -15.5562  -26.7113   13.8405 N   0  0  0  0  0  0  0  0  0  0  0  0
  -15.7499  -26.3987   15.1476 C   0  0  0  0  0  0  0  0  0  0  0  0
  -11.4129  -24.8041   25.5531 H   0  0  0  0  0  0  0  0  0  0  0  0
  -12.3123  -23.4745   26.2675 H   0  0  0  0  0  0  0  0  0  0  0  0
  -11.2649  -24.4837   27.2919 H   0  0  0  0  0  0  0  0  0  0  0  0
  -13.6402  -25.1000   27.6371 H   0  0  0  0  0  0  0  0  0  0  0  0
  -12.7918  -26.4511   26.8914 H   0  0  0  0  0  0  0  0  0  0  0  0
  -16.5282  -26.2114   25.1975 H   0  0  0  0  0  0  0  0  0  0  0  0
  -15.2605  -25.9740   20.3453 H   0  0  0  0  0  0  0  0  0  0  0  0
  -14.0333  -24.6239   20.3254 H   0  0  0  0  0  0  0  0  0  0  0  0
  -13.5777  -24.4367   18.0720 H   0  0  0  0  0  0  0  0  0  0  0  0
  -14.4056  -24.9785   16.8017 H   0  0  0  0  0  0  0  0  0  0  0  0
  -11.6856  -26.2653   17.3118 H   0  0  0  0  0  0  0  0  0  0  0  0
  -12.8987  -27.2111   16.5881 H   0  0  0  0  0  0  0  0  0  0  0  0
  -10.3815  -26.2142   15.3266 H   0  0  0  0  0  0  0  0  0  0  0  0
  -11.5934  -27.2517   14.5178 H   0  0  0  0  0  0  0  0  0  0  0  0
  -11.1580  -25.6758   13.8215 H   0  0  0  0  0  0  0  0  0  0  0  0
  -16.3307  -25.8834   17.5656 H   0  0  0  0  0  0  0  0  0  0  0  0
  -16.2368  -27.4841   18.2054 H   0  0  0  0  0  0  0  0  0  0  0  0
  -14.6596  -29.1841   16.7108 H   0  0  0  0  0  0  0  0  0  0  0  0
  -14.2733  -29.7947   14.3266 H   0  0  0  0  0  0  0  0  0  0  0  0
  -14.8520  -28.1479   12.5410 H   0  0  0  0  0  0  0  0  0  0  0  0
  -16.1712  -25.4069   15.2979 H   0  0  0  0  0  0  0  0  0  0  0  0
  1  2  1  0
  2  3  1  0
  3  4  1  0
  4  5  2  0
  4  6  1  0
  6  7  1  0
  7  8  2  0
  8  9  1  0
  9 10  1  0
 10 11  1  0
 11 12  1  0
 12 13  1  0
 13 14  1  0
 14 15  1  0
 15 16  1  0
 12 17  1  0
 17 18  1  0
 18 19  2  0
 19 20  1  0
 20 21  2  0
 21 22  1  0
 22 23  2  0
 10  6  2  0
 23 18  1  0
  1 24  1  0
  1 25  1  0
  1 26  1  0
  2 27  1  0
  2 28  1  0
  7 29  1  0
 11 30  1  0
 11 31  1  0
 13 32  1  0
 13 33  1  0
 14 34  1  0
 14 35  1  0
 16 36  1  0
 16 37  1  0
 16 38  1  0
 17 39  1  0
 17 40  1  0
 19 41  1  0
 20 42  1  0
 21 43  1  0
 23 44  1  0
M  END
>  <Energy>  (781) 
275.4893180693266

>  <compound_id>  (781) 
87541

>  <target_id>  (781) 
1

>  <reference_id>  (781) 
123

>  <inspiration_ids>  (781) 
[123, 48]

>  <energy_score>  (781) 
168.87000270451392

>  <distance_score>  (781) 
7.5273383187290195

>  <path>  (781) 
/opt/xchem-fragalysis-2/maxwin/BulkDock/SCRATCH/511017/C87541-P123/C87541-P123.minimised.mol

>  <scratch_subdir>  (781) 
/opt/xchem-fragalysis-2/maxwin/BulkDock/SCRATCH/511017/C87541-P123

>  <fragmenstein_runtime>  (781) 
14.415925741195679

>  <fragmenstein_outcome>  (781) 
too moved

>  <fragmenstein_mode>  (781) 
expansion

>  <fragmenstein_error>  (781) 


$$$$
C87541-P48
     RDKit          3D

 44 45  0  0  0  0  0  0  0  0999 V2000
  -17.0907  -26.9387   21.8121 C   0  0  0  0  0  0  0  0  0  0  0  0
  -17.3693  -27.0252   20.2642 C   0  0  0  0  0  0  0  0  0  0  0  0
  -16.1136  -27.0282   19.5424 O   0  0  0  0  0  0  0  0  0  0  0  0
  -15.9350  -26.7264   18.2032 C   0  0  0  0  0  0  0  0  0  0  0  0
  -16.8204  -26.5886   17.3768 O   0  0  0  0  0  0  0  0  0  0  0  0
  -14.5084  -26.5451   17.9606 C   0  0  0  0  0  0  0  0  0  0  0  0
  -13.6501  -26.4687   19.0622 C   0  0  0  0  0  0  0  0  0  0  0  0
  -12.3861  -26.5070   18.7051 N   0  0  0  0  0  0  0  0  0  0  0  0
  -12.3513  -26.4127   17.3696 O   0  0  0  0  0  0  0  0  0  0  0  0
  -13.6258  -26.3806   16.8793 C   0  0  0  0  0  0  0  0  0  0  0  0
  -13.8131  -26.2281   15.3019 C   0  0  0  0  0  0  0  0  0  0  0  0
  -12.6891  -26.2225   14.1584 N   0  0  0  0  0  0  0  0  0  0  0  0
  -11.8795  -24.9808   14.1877 C   0  0  0  0  0  0  0  0  0  0  0  0
  -10.5975  -24.7911   13.3435 C   0  0  0  0  0  0  0  0  0  0  0  0
   -9.9862  -23.5231   13.6295 O   0  0  0  0  0  0  0  0  0  0  0  0
  -10.5286  -22.4722   12.8453 C   0  0  0  0  0  0  0  0  0  0  0  0
  -13.4322  -26.3582   12.8445 C   0  0  0  0  0  0  0  0  0  0  0  0
  -12.8272  -26.0742   11.4742 C   0  0  0  0  0  0  0  0  0  0  0  0
  -12.0470  -26.9920   10.7627 C   0  0  0  0  0  0  0  0  0  0  0  0
  -11.6683  -26.7208    9.4397 C   0  0  0  0  0  0  0  0  0  0  0  0
  -12.0712  -25.5285    8.8597 C   0  0  0  0  0  0  0  0  0  0  0  0
  -12.8123  -24.6081    9.5098 N   0  0  0  0  0  0  0  0  0  0  0  0
  -13.1724  -24.9070   10.7838 C   0  0  0  0  0  0  0  0  0  0  0  0
  -16.2062  -27.4857   22.0979 H   0  0  0  0  0  0  0  0  0  0  0  0
  -17.9491  -27.3687   22.3397 H   0  0  0  0  0  0  0  0  0  0  0  0
  -17.0229  -25.9115   22.1544 H   0  0  0  0  0  0  0  0  0  0  0  0
  -17.9927  -26.1885   19.9354 H   0  0  0  0  0  0  0  0  0  0  0  0
  -17.8746  -27.9701   20.0423 H   0  0  0  0  0  0  0  0  0  0  0  0
  -13.9181  -26.4592   20.0886 H   0  0  0  0  0  0  0  0  0  0  0  0
  -14.4047  -25.3126   15.1649 H   0  0  0  0  0  0  0  0  0  0  0  0
  -14.4625  -27.0779   15.0494 H   0  0  0  0  0  0  0  0  0  0  0  0
  -11.4986  -24.9276   15.2101 H   0  0  0  0  0  0  0  0  0  0  0  0
  -12.5461  -24.1306   14.0167 H   0  0  0  0  0  0  0  0  0  0  0  0
  -10.7490  -24.8755   12.2684 H   0  0  0  0  0  0  0  0  0  0  0  0
   -9.8755  -25.5648   13.6270 H   0  0  0  0  0  0  0  0  0  0  0  0
  -10.2001  -21.5197   13.2530 H   0  0  0  0  0  0  0  0  0  0  0  0
  -10.1821  -22.5627   11.8148 H   0  0  0  0  0  0  0  0  0  0  0  0
  -11.6182  -22.4977   12.8635 H   0  0  0  0  0  0  0  0  0  0  0  0
  -13.8068  -27.3905   12.8060 H   0  0  0  0  0  0  0  0  0  0  0  0
  -14.3360  -25.7348   12.9085 H   0  0  0  0  0  0  0  0  0  0  0  0
  -11.7507  -27.9312   11.2248 H   0  0  0  0  0  0  0  0  0  0  0  0
  -11.0646  -27.4271    8.8795 H   0  0  0  0  0  0  0  0  0  0  0  0
  -11.7857  -25.2693    7.8438 H   0  0  0  0  0  0  0  0  0  0  0  0
  -13.7989  -24.1515   11.2520 H   0  0  0  0  0  0  0  0  0  0  0  0
  1  2  1  0
  2  3  1  0
  3  4  1  0
  4  5  2  0
  4  6  1  0
  6  7  1  0
  7  8  2  0
  8  9  1  0
  9 10  1  0
 10 11  1  0
 11 12  1  0
 12 13  1  0
 13 14  1  0
 14 15  1  0
 15 16  1  0
 12 17  1  0
 17 18  1  0
 18 19  2  0
 19 20  1  0
 20 21  2  0
 21 22  1  0
 22 23  2  0
 10  6  2  0
 23 18  1  0
  1 24  1  0
  1 25  1  0
  1 26  1  0
  2 27  1  0
  2 28  1  0
  7 29  1  0
 11 30  1  0
 11 31  1  0
 13 32  1  0
 13 33  1  0
 14 34  1  0
 14 35  1  0
 16 36  1  0
 16 37  1  0
 16 38  1  0
 17 39  1  0
 17 40  1  0
 19 41  1  0
 20 42  1  0
 21 43  1  0
 23 44  1  0
M  END
>  <Energy>  (782) 
75.449489509872507

>  <compound_id>  (782) 
87541

>  <target_id>  (782) 
1

>  <reference_id>  (782) 
48

>  <inspiration_ids>  (782) 
[123, 48]

>  <energy_score>  (782) 
-6.581291800189149

>  <distance_score>  (782) 
8.788134727669028

>  <path>  (782) 
/opt/xchem-fragalysis-2/maxwin/BulkDock/SCRATCH/511017/C87541-P48/C87541-P48.minimised.mol

>  <scratch_subdir>  (782) 
/opt/xchem-fragalysis-2/maxwin/BulkDock/SCRATCH/511017/C87541-P48

>  <fragmenstein_runtime>  (782) 
5.229411363601685

>  <fragmenstein_outcome>  (782) 
too moved

>  <fragmenstein_mode>  (782) 
expansion

>  <fragmenstein_error>  (782) 


$$$$
C87544-P123
     RDKit          3D

 39 40  0  0  0  0  0  0  0  0999 V2000
  -15.1815  -26.2723   25.8151 C   0  0  0  0  0  0  0  0  0  0  0  0
  -15.5801  -25.3394   24.6838 C   0  0  0  0  0  0  0  0  0  0  0  0
  -14.3778  -24.6805   24.2605 O   0  0  0  0  0  0  0  0  0  0  0  0
  -14.4116  -23.3639   23.9318 C   0  0  0  0  0  0  0  0  0  0  0  0
  -15.4400  -22.7336   23.7002 O   0  0  0  0  0  0  0  0  0  0  0  0
  -12.9375  -22.6861   23.9941 C   0  0  0  0  0  0  0  0  0  0  0  0
  -12.6279  -23.1466   25.7576 C   0  0  0  0  0  0  0  0  0  0  0  0
  -11.4725  -24.1832   25.1468 S   0  0  0  0  0  0  0  0  0  0  0  0
  -11.9637  -22.8799   23.8895 C   0  0  0  0  0  0  0  0  0  0  0  0
  -11.5355  -22.7726   22.6506 N   0  0  0  0  0  0  0  0  0  0  0  0
  -12.0807  -22.3839   21.4272 C   0  0  0  0  0  0  0  0  0  0  0  0
  -11.9483  -21.1827   21.2479 O   0  0  0  0  0  0  0  0  0  0  0  0
  -12.7576  -23.2394   20.0556 C   0  0  0  0  0  0  0  0  0  0  0  0
  -13.3969  -24.2988   19.2358 C   0  0  0  0  0  0  0  0  0  0  0  0
  -14.0297  -25.3320   19.9749 C   0  0  0  0  0  0  0  0  0  0  0  0
  -13.8589  -24.7705   17.5817 C   0  0  0  0  0  0  0  0  0  0  0  0
  -13.2167  -25.9027   16.9664 C   0  0  0  0  0  0  0  0  0  0  0  0
  -13.4619  -26.3285   15.6508 C   0  0  0  0  0  0  0  0  0  0  0  0
  -14.4192  -25.6637   14.9261 C   0  0  0  0  0  0  0  0  0  0  0  0
  -15.1524  -24.6739   15.4565 N   0  0  0  0  0  0  0  0  0  0  0  0
  -14.8741  -24.2968   16.7496 C   0  0  0  0  0  0  0  0  0  0  0  0
  -14.7484  -25.7131   26.6500 H   0  0  0  0  0  0  0  0  0  0  0  0
  -16.0468  -26.8337   26.1781 H   0  0  0  0  0  0  0  0  0  0  0  0
  -14.4181  -26.9810   25.4775 H   0  0  0  0  0  0  0  0  0  0  0  0
  -16.3361  -24.6247   25.0216 H   0  0  0  0  0  0  0  0  0  0  0  0
  -15.9746  -25.9199   23.8454 H   0  0  0  0  0  0  0  0  0  0  0  0
  -13.3692  -21.6133   23.8771 H   0  0  0  0  0  0  0  0  0  0  0  0
  -12.1219  -22.3943   26.3669 H   0  0  0  0  0  0  0  0  0  0  0  0
  -13.4125  -23.7047   26.2461 H   0  0  0  0  0  0  0  0  0  0  0  0
  -11.6015  -21.6734   24.1488 H   0  0  0  0  0  0  0  0  0  0  0  0
  -10.8476  -23.0910   23.9276 H   0  0  0  0  0  0  0  0  0  0  0  0
  -12.6789  -22.3499   19.4067 H   0  0  0  0  0  0  0  0  0  0  0  0
  -13.9250  -25.1078   20.9911 H   0  0  0  0  0  0  0  0  0  0  0  0
  -13.9507  -26.1633   19.3043 H   0  0  0  0  0  0  0  0  0  0  0  0
  -14.9603  -25.6732   20.3217 H   0  0  0  0  0  0  0  0  0  0  0  0
  -12.4366  -26.4446   17.4956 H   0  0  0  0  0  0  0  0  0  0  0  0
  -12.8990  -27.1475   15.2171 H   0  0  0  0  0  0  0  0  0  0  0  0
  -14.6462  -25.9275   13.8985 H   0  0  0  0  0  0  0  0  0  0  0  0
  -15.6383  -23.6332   17.1052 H   0  0  0  0  0  0  0  0  0  0  0  0
  1  2  1  0
  2  3  1  0
  3  4  1  0
  4  5  2  0
  4  6  1  0
  6  7  1  0
  7  8  1  0
  8  9  1  0
  9 10  1  0
 10 11  1  0
 11 12  2  0
 11 13  1  0
 13 14  2  3
 14 15  1  0
 14 16  1  0
 16 17  2  0
 17 18  1  0
 18 19  2  0
 19 20  1  0
 20 21  2  0
 10  6  1  0
 21 16  1  0
  1 22  1  0
  1 23  1  0
  1 24  1  0
  2 25  1  0
  2 26  1  0
  6 27  1  0
  7 28  1  0
  7 29  1  0
  9 30  1  0
  9 31  1  0
 13 32  1  0
 15 33  1  0
 15 34  1  0
 15 35  1  0
 17 36  1  0
 18 37  1  0
 19 38  1  0
 21 39  1  0
M  END
>  <Energy>  (783) 
834.73997583268101

>  <compound_id>  (783) 
87544

>  <target_id>  (783) 
1

>  <reference_id>  (783) 
123

>  <inspiration_ids>  (783) 
[123, 48]

>  <energy_score>  (783) 
736.901225154338

>  <distance_score>  (783) 
7.593681488379797

>  <path>  (783) 
/opt/xchem-fragalysis-2/maxwin/BulkDock/SCRATCH/511017/C87544-P123/C87544-P123.minimised.mol

>  <scratch_subdir>  (783) 
/opt/xchem-fragalysis-2/maxwin/BulkDock/SCRATCH/511017/C87544-P123

>  <fragmenstein_runtime>  (783) 
25.45564579963684

>  <fragmenstein_outcome>  (783) 
too moved

>  <fragmenstein_mode>  (783) 
expansion

>  <fragmenstein_error>  (783) 


$$$$
C87544-P48
     RDKit          3D

 39 40  0  0  0  0  0  0  0  0999 V2000
  -17.4150  -27.9101   20.5745 C   0  0  0  0  0  0  0  0  0  0  0  0
  -17.6038  -28.2568   19.0972 C   0  0  0  0  0  0  0  0  0  0  0  0
  -16.3064  -28.1974   18.4909 O   0  0  0  0  0  0  0  0  0  0  0  0
  -16.2303  -27.8436   17.1773 C   0  0  0  0  0  0  0  0  0  0  0  0
  -17.1231  -27.8850   16.3483 O   0  0  0  0  0  0  0  0  0  0  0  0
  -14.6137  -27.1795   16.8879 C   0  0  0  0  0  0  0  0  0  0  0  0
  -13.5646  -27.8663   17.9773 C   0  0  0  0  0  0  0  0  0  0  0  0
  -13.8974  -26.3381   18.6397 S   0  0  0  0  0  0  0  0  0  0  0  0
  -14.6543  -26.2285   16.9485 C   0  0  0  0  0  0  0  0  0  0  0  0
  -13.7303  -25.7648   16.0197 N   0  0  0  0  0  0  0  0  0  0  0  0
  -12.8313  -26.3252   15.1486 C   0  0  0  0  0  0  0  0  0  0  0  0
  -11.6728  -26.5923   15.4143 O   0  0  0  0  0  0  0  0  0  0  0  0
  -13.3785  -26.4855   13.7631 C   0  0  0  0  0  0  0  0  0  0  0  0
  -12.6797  -27.0694   12.7629 C   0  0  0  0  0  0  0  0  0  0  0  0
  -11.4865  -27.9682   12.9785 C   0  0  0  0  0  0  0  0  0  0  0  0
  -12.9702  -26.7069   11.3469 C   0  0  0  0  0  0  0  0  0  0  0  0
  -11.9216  -26.4025   10.4657 C   0  0  0  0  0  0  0  0  0  0  0  0
  -12.1861  -25.9921    9.1601 C   0  0  0  0  0  0  0  0  0  0  0  0
  -13.5054  -25.8967    8.7604 C   0  0  0  0  0  0  0  0  0  0  0  0
  -14.5501  -26.1863    9.5632 N   0  0  0  0  0  0  0  0  0  0  0  0
  -14.2574  -26.5863   10.8270 C   0  0  0  0  0  0  0  0  0  0  0  0
  -16.9401  -26.9312   20.6847 H   0  0  0  0  0  0  0  0  0  0  0  0
  -18.3777  -27.8994   21.0931 H   0  0  0  0  0  0  0  0  0  0  0  0
  -16.7672  -28.6465   21.0575 H   0  0  0  0  0  0  0  0  0  0  0  0
  -17.9996  -29.2710   18.9888 H   0  0  0  0  0  0  0  0  0  0  0  0
  -18.2878  -27.5401   18.6301 H   0  0  0  0  0  0  0  0  0  0  0  0
  -14.4189  -27.9679   16.0516 H   0  0  0  0  0  0  0  0  0  0  0  0
  -12.5635  -27.9992   17.5647 H   0  0  0  0  0  0  0  0  0  0  0  0
  -13.9636  -28.7436   18.4839 H   0  0  0  0  0  0  0  0  0  0  0  0
  -14.7408  -25.1468   17.3418 H   0  0  0  0  0  0  0  0  0  0  0  0
  -15.7455  -25.7916   16.6149 H   0  0  0  0  0  0  0  0  0  0  0  0
  -14.2191  -25.8303   13.5527 H   0  0  0  0  0  0  0  0  0  0  0  0
  -11.5765  -28.5445   13.9054 H   0  0  0  0  0  0  0  0  0  0  0  0
  -11.4069  -28.7115   12.1766 H   0  0  0  0  0  0  0  0  0  0  0  0
  -10.5569  -27.3906   13.0088 H   0  0  0  0  0  0  0  0  0  0  0  0
  -10.8854  -26.4519   10.7923 H   0  0  0  0  0  0  0  0  0  0  0  0
  -11.3808  -25.7439    8.4762 H   0  0  0  0  0  0  0  0  0  0  0  0
  -13.7645  -25.5779    7.7548 H   0  0  0  0  0  0  0  0  0  0  0  0
  -15.1324  -26.8119   11.4306 H   0  0  0  0  0  0  0  0  0  0  0  0
  1  2  1  0
  2  3  1  0
  3  4  1  0
  4  5  2  0
  4  6  1  0
  6  7  1  0
  7  8  1  0
  8  9  1  0
  9 10  1  0
 10 11  1  0
 11 12  2  0
 11 13  1  0
 13 14  2  3
 14 15  1  0
 14 16  1  0
 16 17  2  0
 17 18  1  0
 18 19  2  0
 19 20  1  0
 20 21  2  0
 10  6  1  0
 21 16  1  0
  1 22  1  0
  1 23  1  0
  1 24  1  0
  2 25  1  0
  2 26  1  0
  6 27  1  0
  7 28  1  0
  7 29  1  0
  9 30  1  0
  9 31  1  0
 13 32  1  0
 15 33  1  0
 15 34  1  0
 15 35  1  0
 17 36  1  0
 18 37  1  0
 19 38  1  0
 21 39  1  0
M  END
>  <Energy>  (784) 
583.33607701724236

>  <compound_id>  (784) 
87544

>  <target_id>  (784) 
1

>  <reference_id>  (784) 
48

>  <inspiration_ids>  (784) 
[123, 48]

>  <energy_score>  (784) 
485.4973263388883

>  <distance_score>  (784) 
11.240608147103233

>  <path>  (784) 
/opt/xchem-fragalysis-2/maxwin/BulkDock/SCRATCH/511017/C87544-P48/C87544-P48.minimised.mol

>  <scratch_subdir>  (784) 
/opt/xchem-fragalysis-2/maxwin/BulkDock/SCRATCH/511017/C87544-P48

>  <fragmenstein_runtime>  (784) 
7.266655445098877

>  <fragmenstein_outcome>  (784) 
too moved

>  <fragmenstein_mode>  (784) 
expansion

>  <fragmenstein_error>  (784) 


$$$$
C87545-P123
     RDKit          3D

 45 47  0  0  0  0  0  0  0  0999 V2000
  -15.6210  -26.4975   25.5418 C   0  0  0  0  0  0  0  0  0  0  0  0
  -15.8286  -25.5196   24.3979 C   0  0  0  0  0  0  0  0  0  0  0  0
  -14.5271  -25.0888   23.9507 O   0  0  0  0  0  0  0  0  0  0  0  0
  -14.2746  -23.7417   23.9242 C   0  0  0  0  0  0  0  0  0  0  0  0
  -15.1711  -22.9116   23.7491 O   0  0  0  0  0  0  0  0  0  0  0  0
  -12.4495  -23.2662   24.3206 C   0  0  0  0  0  0  0  0  0  0  0  0
  -11.4040  -24.2715   25.3281 C   0  0  0  0  0  0  0  0  0  0  0  0
  -11.0149  -23.8977   26.7311 C   0  0  0  0  0  0  0  0  0  0  0  0
  -11.9820  -22.7625   26.7955 C   0  0  0  0  0  0  0  0  0  0  0  0
  -12.7443  -22.9921   25.1495 C   0  0  0  0  0  0  0  0  0  0  0  0
  -12.7626  -24.5985   25.6330 C   0  0  0  0  0  0  0  0  0  0  0  0
  -12.6445  -22.1063   23.4829 N   0  0  0  0  0  0  0  0  0  0  0  0
  -12.0766  -22.4456   22.0322 C   0  0  0  0  0  0  0  0  0  0  0  0
  -10.8889  -22.1005   21.9515 O   0  0  0  0  0  0  0  0  0  0  0  0
  -12.6726  -23.0533   20.3788 C   0  0  0  0  0  0  0  0  0  0  0  0
  -13.1969  -24.1995   19.4707 C   0  0  0  0  0  0  0  0  0  0  0  0
  -13.9382  -25.2507   20.1035 C   0  0  0  0  0  0  0  0  0  0  0  0
  -13.7553  -24.7259   17.7771 C   0  0  0  0  0  0  0  0  0  0  0  0
  -13.1892  -25.9199   17.1654 C   0  0  0  0  0  0  0  0  0  0  0  0
  -13.4656  -26.3813   15.8634 C   0  0  0  0  0  0  0  0  0  0  0  0
  -14.3908  -25.6988   15.1219 C   0  0  0  0  0  0  0  0  0  0  0  0
  -15.0656  -24.6641   15.6324 N   0  0  0  0  0  0  0  0  0  0  0  0
  -14.7514  -24.2567   16.9141 C   0  0  0  0  0  0  0  0  0  0  0  0
  -14.9541  -27.3116   25.2396 H   0  0  0  0  0  0  0  0  0  0  0  0
  -15.1604  -26.0040   26.4018 H   0  0  0  0  0  0  0  0  0  0  0  0
  -16.5760  -26.9241   25.8616 H   0  0  0  0  0  0  0  0  0  0  0  0
  -16.4522  -24.6840   24.7322 H   0  0  0  0  0  0  0  0  0  0  0  0
  -16.3266  -26.0264   23.5668 H   0  0  0  0  0  0  0  0  0  0  0  0
  -11.6975  -23.5854   23.5767 H   0  0  0  0  0  0  0  0  0  0  0  0
  -10.8889  -25.1043   24.8638 H   0  0  0  0  0  0  0  0  0  0  0  0
  -11.2382  -24.6733   27.4773 H   0  0  0  0  0  0  0  0  0  0  0  0
   -9.9696  -23.6835   26.8906 H   0  0  0  0  0  0  0  0  0  0  0  0
  -12.7478  -22.9143   27.5668 H   0  0  0  0  0  0  0  0  0  0  0  0
  -11.5064  -21.8017   27.0151 H   0  0  0  0  0  0  0  0  0  0  0  0
  -12.1941  -21.9325   25.4023 H   0  0  0  0  0  0  0  0  0  0  0  0
  -13.1741  -24.7446   26.6401 H   0  0  0  0  0  0  0  0  0  0  0  0
  -12.9541  -25.5266   25.0975 H   0  0  0  0  0  0  0  0  0  0  0  0
  -12.3794  -22.1585   19.8257 H   0  0  0  0  0  0  0  0  0  0  0  0
  -14.2767  -25.9666   19.3893 H   0  0  0  0  0  0  0  0  0  0  0  0
  -14.2456  -25.5597   21.0861 H   0  0  0  0  0  0  0  0  0  0  0  0
  -14.6307  -24.5677   20.2961 H   0  0  0  0  0  0  0  0  0  0  0  0
  -12.4058  -26.4802   17.6622 H   0  0  0  0  0  0  0  0  0  0  0  0
  -12.9389  -27.2360   15.4537 H   0  0  0  0  0  0  0  0  0  0  0  0
  -14.6382  -25.9800   14.1042 H   0  0  0  0  0  0  0  0  0  0  0  0
  -15.5204  -23.5915   17.2392 H   0  0  0  0  0  0  0  0  0  0  0  0
  1  2  1  0
  2  3  1  0
  3  4  1  0
  4  5  2  0
  4  6  1  0
  6  7  1  0
  7  8  1  0
  8  9  1  0
  9 10  1  0
 10 11  1  0
 10 12  1  0
 12 13  1  0
 13 14  2  0
 13 15  1  0
 15 16  2  3
 16 17  1  0
 16 18  1  0
 18 19  2  0
 19 20  1  0
 20 21  2  0
 21 22  1  0
 22 23  2  0
 12  6  1  0
 23 18  1  0
 11  7  1  0
  1 24  1  0
  1 25  1  0
  1 26  1  0
  2 27  1  0
  2 28  1  0
  6 29  1  0
  7 30  1  0
  8 31  1  0
  8 32  1  0
  9 33  1  0
  9 34  1  0
 10 35  1  0
 11 36  1  0
 11 37  1  0
 15 38  1  0
 17 39  1  0
 17 40  1  0
 17 41  1  0
 19 42  1  0
 20 43  1  0
 21 44  1  0
 23 45  1  0
M  END
>  <Energy>  (785) 
1123.4188559750701

>  <compound_id>  (785) 
87545

>  <target_id>  (785) 
1

>  <reference_id>  (785) 
123

>  <inspiration_ids>  (785) 
[123, 48]

>  <energy_score>  (785) 
1010.5046190910341

>  <distance_score>  (785) 
7.5155309220291695

>  <path>  (785) 
/opt/xchem-fragalysis-2/maxwin/BulkDock/SCRATCH/511017/C87545-P123/C87545-P123.minimised.mol

>  <scratch_subdir>  (785) 
/opt/xchem-fragalysis-2/maxwin/BulkDock/SCRATCH/511017/C87545-P123

>  <fragmenstein_runtime>  (785) 
9.967474937438965

>  <fragmenstein_outcome>  (785) 
too moved

>  <fragmenstein_mode>  (785) 
expansion

>  <fragmenstein_error>  (785) 


$$$$
C87545-P48
     RDKit          3D

 45 47  0  0  0  0  0  0  0  0999 V2000
  -16.9927  -26.9289   25.1606 C   0  0  0  0  0  0  0  0  0  0  0  0
  -16.5274  -25.9942   24.0661 C   0  0  0  0  0  0  0  0  0  0  0  0
  -17.5112  -25.8586   23.0214 O   0  0  0  0  0  0  0  0  0  0  0  0
  -17.4440  -26.7167   21.9548 C   0  0  0  0  0  0  0  0  0  0  0  0
  -16.5487  -27.5176   21.7545 O   0  0  0  0  0  0  0  0  0  0  0  0
  -18.8193  -26.5943   21.0322 C   0  0  0  0  0  0  0  0  0  0  0  0
  -19.9364  -26.9689   22.1832 C   0  0  0  0  0  0  0  0  0  0  0  0
  -21.2478  -26.4155   21.6749 C   0  0  0  0  0  0  0  0  0  0  0  0
  -20.9232  -26.5744   20.2235 C   0  0  0  0  0  0  0  0  0  0  0  0
  -19.2999  -27.2462   20.4984 C   0  0  0  0  0  0  0  0  0  0  0  0
  -19.6237  -28.2960   21.6896 C   0  0  0  0  0  0  0  0  0  0  0  0
  -18.7248  -27.2569   19.2536 N   0  0  0  0  0  0  0  0  0  0  0  0
  -17.7100  -26.5603   18.6086 C   0  0  0  0  0  0  0  0  0  0  0  0
  -17.8674  -25.5272   17.9772 O   0  0  0  0  0  0  0  0  0  0  0  0
  -16.3628  -27.2093   18.6182 C   0  0  0  0  0  0  0  0  0  0  0  0
  -15.4254  -27.2449   17.6304 C   0  0  0  0  0  0  0  0  0  0  0  0
  -14.1353  -27.9965   17.9015 C   0  0  0  0  0  0  0  0  0  0  0  0
  -15.4388  -26.6725   16.2399 C   0  0  0  0  0  0  0  0  0  0  0  0
  -15.5813  -25.3106   15.9776 C   0  0  0  0  0  0  0  0  0  0  0  0
  -15.4335  -24.8156   14.6740 C   0  0  0  0  0  0  0  0  0  0  0  0
  -15.1338  -25.6967   13.6502 C   0  0  0  0  0  0  0  0  0  0  0  0
  -14.9840  -27.0194   13.8417 N   0  0  0  0  0  0  0  0  0  0  0  0
  -15.1454  -27.4655   15.1183 C   0  0  0  0  0  0  0  0  0  0  0  0
  -17.1755  -27.9318   24.7617 H   0  0  0  0  0  0  0  0  0  0  0  0
  -17.9394  -26.5800   25.5857 H   0  0  0  0  0  0  0  0  0  0  0  0
  -16.2496  -26.9968   25.9599 H   0  0  0  0  0  0  0  0  0  0  0  0
  -15.5664  -26.3337   23.6724 H   0  0  0  0  0  0  0  0  0  0  0  0
  -16.3764  -24.9967   24.4916 H   0  0  0  0  0  0  0  0  0  0  0  0
  -18.7732  -25.4399   20.8750 H   0  0  0  0  0  0  0  0  0  0  0  0
  -19.7149  -26.7802   23.2344 H   0  0  0  0  0  0  0  0  0  0  0  0
  -21.3835  -25.3642   21.9431 H   0  0  0  0  0  0  0  0  0  0  0  0
  -22.1162  -26.9989   21.9906 H   0  0  0  0  0  0  0  0  0  0  0  0
  -21.5527  -27.3036   19.7020 H   0  0  0  0  0  0  0  0  0  0  0  0
  -20.8590  -25.6339   19.6650 H   0  0  0  0  0  0  0  0  0  0  0  0
  -19.6502  -28.2140   19.9706 H   0  0  0  0  0  0  0  0  0  0  0  0
  -18.7546  -28.8207   22.0952 H   0  0  0  0  0  0  0  0  0  0  0  0
  -20.4961  -28.9498   21.5725 H   0  0  0  0  0  0  0  0  0  0  0  0
  -16.1735  -27.7877   19.5118 H   0  0  0  0  0  0  0  0  0  0  0  0
  -14.1264  -28.9635   17.3884 H   0  0  0  0  0  0  0  0  0  0  0  0
  -13.9913  -28.1888   18.9660 H   0  0  0  0  0  0  0  0  0  0  0  0
  -13.2662  -27.4137   17.5745 H   0  0  0  0  0  0  0  0  0  0  0  0
  -15.8052  -24.6163   16.7834 H   0  0  0  0  0  0  0  0  0  0  0  0
  -15.5573  -23.7595   14.4650 H   0  0  0  0  0  0  0  0  0  0  0  0
  -15.0112  -25.3527   12.6279 H   0  0  0  0  0  0  0  0  0  0  0  0
  -15.0139  -28.5401   15.2185 H   0  0  0  0  0  0  0  0  0  0  0  0
  1  2  1  0
  2  3  1  0
  3  4  1  0
  4  5  2  0
  4  6  1  0
  6  7  1  0
  7  8  1  0
  8  9  1  0
  9 10  1  0
 10 11  1  0
 10 12  1  0
 12 13  1  0
 13 14  2  0
 13 15  1  0
 15 16  2  3
 16 17  1  0
 16 18  1  0
 18 19  2  0
 19 20  1  0
 20 21  2  0
 21 22  1  0
 22 23  2  0
 12  6  1  0
 23 18  1  0
 11  7  1  0
  1 24  1  0
  1 25  1  0
  1 26  1  0
  2 27  1  0
  2 28  1  0
  6 29  1  0
  7 30  1  0
  8 31  1  0
  8 32  1  0
  9 33  1  0
  9 34  1  0
 10 35  1  0
 11 36  1  0
 11 37  1  0
 15 38  1  0
 17 39  1  0
 17 40  1  0
 17 41  1  0
 19 42  1  0
 20 43  1  0
 21 44  1  0
 23 45  1  0
M  END
>  <Energy>  (786) 
644.97085199878552

>  <compound_id>  (786) 
87545

>  <target_id>  (786) 
1

>  <reference_id>  (786) 
48

>  <inspiration_ids>  (786) 
[123, 48]

>  <energy_score>  (786) 
532.0566151147348

>  <distance_score>  (786) 
10.29208790669968

>  <path>  (786) 
/opt/xchem-fragalysis-2/maxwin/BulkDock/SCRATCH/511017/C87545-P48/C87545-P48.minimised.mol

>  <scratch_subdir>  (786) 
/opt/xchem-fragalysis-2/maxwin/BulkDock/SCRATCH/511017/C87545-P48

>  <fragmenstein_runtime>  (786) 
9.490901470184326

>  <fragmenstein_outcome>  (786) 
too moved

>  <fragmenstein_mode>  (786) 
expansion

>  <fragmenstein_error>  (786) 


$$$$
C87548-P123
     RDKit          3D

 32 33  0  0  0  0  0  0  0  0999 V2000
  -15.6419  -27.6833   26.1153 C   0  0  0  0  0  0  0  0  0  0  0  0
  -15.7263  -27.1056   24.7086 C   0  0  0  0  0  0  0  0  0  0  0  0
  -14.5148  -27.3472   23.9688 O   0  0  0  0  0  0  0  0  0  0  0  0
  -13.4565  -26.6294   24.4020 C   0  0  0  0  0  0  0  0  0  0  0  0
  -13.5427  -25.7505   25.2547 O   0  0  0  0  0  0  0  0  0  0  0  0
  -12.1435  -27.0971   23.7451 C   0  0  0  0  0  0  0  0  0  0  0  0
  -11.0601  -27.1125   25.1922 S   0  0  0  0  0  0  0  0  0  0  0  0
  -10.3147  -28.4257   24.5590 N   0  0  0  0  0  0  0  0  0  0  0  0
  -10.2624  -28.4748   23.2107 N   0  0  0  0  0  0  0  0  0  0  0  0
  -11.3167  -27.6734   22.2559 C   0  0  0  0  0  0  0  0  0  0  0  0
  -11.2603  -28.2625   20.1989 C   0  0  0  0  0  0  0  0  0  0  0  0
  -11.8801  -30.1453   19.9020 C   0  0  0  0  0  0  0  0  0  0  0  0
  -12.0405  -27.7606   18.4820 O   0  0  0  0  0  0  0  0  0  0  0  0
  -12.2485  -27.9317   17.1425 C   0  0  0  0  0  0  0  0  0  0  0  0
  -11.9479  -28.9832   16.2966 C   0  0  0  0  0  0  0  0  0  0  0  0
  -12.1801  -28.8846   14.9123 C   0  0  0  0  0  0  0  0  0  0  0  0
  -12.7459  -27.7305   14.3998 C   0  0  0  0  0  0  0  0  0  0  0  0
  -13.1113  -26.6974   15.1742 N   0  0  0  0  0  0  0  0  0  0  0  0
  -12.8590  -26.8388   16.5081 C   0  0  0  0  0  0  0  0  0  0  0  0
  -15.3628  -28.7414   26.0762 H   0  0  0  0  0  0  0  0  0  0  0  0
  -14.8922  -27.1785   26.7303 H   0  0  0  0  0  0  0  0  0  0  0  0
  -16.6079  -27.5935   26.6212 H   0  0  0  0  0  0  0  0  0  0  0  0
  -16.5365  -27.6038   24.1666 H   0  0  0  0  0  0  0  0  0  0  0  0
  -15.9608  -26.0345   24.7216 H   0  0  0  0  0  0  0  0  0  0  0  0
  -10.2553  -28.5025   20.1133 H   0  0  0  0  0  0  0  0  0  0  0  0
  -11.2902  -30.8863   20.4971 H   0  0  0  0  0  0  0  0  0  0  0  0
  -12.1373  -30.2170   18.8260 H   0  0  0  0  0  0  0  0  0  0  0  0
  -12.8852  -30.5602   20.1341 H   0  0  0  0  0  0  0  0  0  0  0  0
  -11.5217  -29.9045   16.6558 H   0  0  0  0  0  0  0  0  0  0  0  0
  -11.9182  -29.7070   14.2550 H   0  0  0  0  0  0  0  0  0  0  0  0
  -12.9348  -27.6156   13.3375 H   0  0  0  0  0  0  0  0  0  0  0  0
  -13.1841  -25.9937   17.1081 H   0  0  0  0  0  0  0  0  0  0  0  0
  1  2  1  0
  2  3  1  0
  3  4  1  0
  4  5  2  0
  4  6  1  0
  6  7  1  0
  7  8  1  0
  8  9  2  0
  9 10  1  0
 10 11  1  0
 11 12  1  0
 11 13  1  0
 13 14  1  0
 14 15  2  0
 15 16  1  0
 16 17  2  0
 17 18  1  0
 18 19  2  0
 10  6  2  0
 19 14  1  0
  1 20  1  0
  1 21  1  0
  1 22  1  0
  2 23  1  0
  2 24  1  0
 11 25  1  0
 12 26  1  0
 12 27  1  0
 12 28  1  0
 15 29  1  0
 16 30  1  0
 17 31  1  0
 19 32  1  0
M  END
>  <Energy>  (787) 
476.88838533474643

>  <compound_id>  (787) 
87548

>  <target_id>  (787) 
1

>  <reference_id>  (787) 
123

>  <inspiration_ids>  (787) 
[123, 48]

>  <energy_score>  (787) 
391.7296578543469

>  <distance_score>  (787) 
7.85769656728171

>  <path>  (787) 
/opt/xchem-fragalysis-2/maxwin/BulkDock/SCRATCH/511017/C87548-P123/C87548-P123.minimised.mol

>  <scratch_subdir>  (787) 
/opt/xchem-fragalysis-2/maxwin/BulkDock/SCRATCH/511017/C87548-P123

>  <fragmenstein_runtime>  (787) 
6.189532279968262

>  <fragmenstein_outcome>  (787) 
too moved

>  <fragmenstein_mode>  (787) 
expansion

>  <fragmenstein_error>  (787) 


$$$$
C87548-P48
     RDKit          3D

 32 33  0  0  0  0  0  0  0  0999 V2000
  -14.4386  -24.4704   24.9988 C   0  0  0  0  0  0  0  0  0  0  0  0
  -15.4798  -25.5621   24.7735 C   0  0  0  0  0  0  0  0  0  0  0  0
  -16.7163  -24.9534   24.3229 O   0  0  0  0  0  0  0  0  0  0  0  0
  -17.6881  -25.5646   23.5689 C   0  0  0  0  0  0  0  0  0  0  0  0
  -18.6188  -24.9047   23.1287 O   0  0  0  0  0  0  0  0  0  0  0  0
  -17.5562  -26.9744   23.3813 C   0  0  0  0  0  0  0  0  0  0  0  0
  -17.6691  -27.9558   24.7998 S   0  0  0  0  0  0  0  0  0  0  0  0
  -17.5205  -29.3646   23.9453 N   0  0  0  0  0  0  0  0  0  0  0  0
  -17.4900  -29.1705   22.6373 N   0  0  0  0  0  0  0  0  0  0  0  0
  -17.5399  -27.8136   22.2637 C   0  0  0  0  0  0  0  0  0  0  0  0
  -17.6490  -27.5445   20.7221 C   0  0  0  0  0  0  0  0  0  0  0  0
  -18.7503  -26.5307   20.4145 C   0  0  0  0  0  0  0  0  0  0  0  0
  -16.3790  -27.1672   20.1196 O   0  0  0  0  0  0  0  0  0  0  0  0
  -16.1279  -27.2306   18.7614 C   0  0  0  0  0  0  0  0  0  0  0  0
  -14.8331  -26.8641   18.3607 C   0  0  0  0  0  0  0  0  0  0  0  0
  -14.4691  -26.8297   17.0091 C   0  0  0  0  0  0  0  0  0  0  0  0
  -15.4205  -27.1750   16.0705 C   0  0  0  0  0  0  0  0  0  0  0  0
  -16.6725  -27.5556   16.4015 N   0  0  0  0  0  0  0  0  0  0  0  0
  -16.9911  -27.5795   17.7314 C   0  0  0  0  0  0  0  0  0  0  0  0
  -14.8953  -23.5467   25.3589 H   0  0  0  0  0  0  0  0  0  0  0  0
  -13.6481  -24.8133   25.6716 H   0  0  0  0  0  0  0  0  0  0  0  0
  -13.9573  -24.1646   24.0770 H   0  0  0  0  0  0  0  0  0  0  0  0
  -15.1006  -26.2831   24.0457 H   0  0  0  0  0  0  0  0  0  0  0  0
  -15.6808  -26.0688   25.7203 H   0  0  0  0  0  0  0  0  0  0  0  0
  -17.9416  -28.5081   20.2825 H   0  0  0  0  0  0  0  0  0  0  0  0
  -18.4426  -25.5181   20.6710 H   0  0  0  0  0  0  0  0  0  0  0  0
  -18.9919  -26.5041   19.3491 H   0  0  0  0  0  0  0  0  0  0  0  0
  -19.6727  -26.7646   20.9564 H   0  0  0  0  0  0  0  0  0  0  0  0
  -14.0933  -26.5857   19.1086 H   0  0  0  0  0  0  0  0  0  0  0  0
  -13.4681  -26.5397   16.7103 H   0  0  0  0  0  0  0  0  0  0  0  0
  -15.1992  -27.1648   15.0077 H   0  0  0  0  0  0  0  0  0  0  0  0
  -18.0090  -27.9028   17.9189 H   0  0  0  0  0  0  0  0  0  0  0  0
  1  2  1  0
  2  3  1  0
  3  4  1  0
  4  5  2  0
  4  6  1  0
  6  7  1  0
  7  8  1  0
  8  9  2  0
  9 10  1  0
 10 11  1  0
 11 12  1  0
 11 13  1  0
 13 14  1  0
 14 15  2  0
 15 16  1  0
 16 17  2  0
 17 18  1  0
 18 19  2  0
 10  6  2  0
 19 14  1  0
  1 20  1  0
  1 21  1  0
  1 22  1  0
  2 23  1  0
  2 24  1  0
 11 25  1  0
 12 26  1  0
 12 27  1  0
 12 28  1  0
 15 29  1  0
 16 30  1  0
 17 31  1  0
 19 32  1  0
M  END
>  <Energy>  (788) 
45.988115918580363

>  <compound_id>  (788) 
87548

>  <target_id>  (788) 
1

>  <reference_id>  (788) 
48

>  <inspiration_ids>  (788) 
[123, 48]

>  <energy_score>  (788) 
-39.17061156181495

>  <distance_score>  (788) 
9.655456099619057

>  <path>  (788) 
/opt/xchem-fragalysis-2/maxwin/BulkDock/SCRATCH/511017/C87548-P48/C87548-P48.minimised.mol

>  <scratch_subdir>  (788) 
/opt/xchem-fragalysis-2/maxwin/BulkDock/SCRATCH/511017/C87548-P48

>  <fragmenstein_runtime>  (788) 
3.0091776847839355

>  <fragmenstein_outcome>  (788) 
too moved

>  <fragmenstein_mode>  (788) 
expansion

>  <fragmenstein_error>  (788) 


$$$$
C87549-P123
     RDKit          3D

 29 30  0  0  0  0  0  0  0  0999 V2000
  -11.8304  -23.0673   27.3758 C   0  0  0  0  0  0  0  0  0  0  0  0
  -10.9563  -24.0202   26.5988 C   0  0  0  0  0  0  0  0  0  0  0  0
  -11.1273  -25.3105   27.1116 O   0  0  0  0  0  0  0  0  0  0  0  0
  -10.5735  -25.4040   28.3410 C   0  0  0  0  0  0  0  0  0  0  0  0
   -9.6486  -24.7364   28.7722 O   0  0  0  0  0  0  0  0  0  0  0  0
  -11.3207  -26.3392   29.0565 C   0  0  0  0  0  0  0  0  0  0  0  0
  -10.8992  -26.5850   30.6927 S   0  0  0  0  0  0  0  0  0  0  0  0
  -11.9950  -27.8090   30.8246 N   0  0  0  0  0  0  0  0  0  0  0  0
  -12.7996  -27.9223   29.7730 N   0  0  0  0  0  0  0  0  0  0  0  0
  -12.4466  -27.0673   28.7226 C   0  0  0  0  0  0  0  0  0  0  0  0
  -13.3786  -26.9737   27.4677 C   0  0  0  0  0  0  0  0  0  0  0  0
  -12.7892  -27.0924   26.1143 O   0  0  0  0  0  0  0  0  0  0  0  0
  -13.6545  -26.7001   25.0862 C   0  0  0  0  0  0  0  0  0  0  0  0
  -13.8346  -25.3722   24.8085 C   0  0  0  0  0  0  0  0  0  0  0  0
  -14.8554  -24.9560   23.9883 C   0  0  0  0  0  0  0  0  0  0  0  0
  -15.7173  -25.9016   23.4731 C   0  0  0  0  0  0  0  0  0  0  0  0
  -15.5551  -27.1878   23.7099 N   0  0  0  0  0  0  0  0  0  0  0  0
  -14.5442  -27.5606   24.4934 C   0  0  0  0  0  0  0  0  0  0  0  0
  -11.7707  -22.0667   26.9545 H   0  0  0  0  0  0  0  0  0  0  0  0
  -12.8670  -23.4090   27.3787 H   0  0  0  0  0  0  0  0  0  0  0  0
  -11.5320  -22.9859   28.4259 H   0  0  0  0  0  0  0  0  0  0  0  0
   -9.9056  -23.7904   26.6914 H   0  0  0  0  0  0  0  0  0  0  0  0
  -11.2099  -24.0255   25.5365 H   0  0  0  0  0  0  0  0  0  0  0  0
  -13.8944  -26.0077   27.5391 H   0  0  0  0  0  0  0  0  0  0  0  0
  -14.1286  -27.7694   27.5574 H   0  0  0  0  0  0  0  0  0  0  0  0
  -13.2567  -24.6189   25.3299 H   0  0  0  0  0  0  0  0  0  0  0  0
  -14.9988  -23.8818   23.9575 H   0  0  0  0  0  0  0  0  0  0  0  0
  -16.6603  -25.6958   22.9770 H   0  0  0  0  0  0  0  0  0  0  0  0
  -14.5977  -28.5898   24.8314 H   0  0  0  0  0  0  0  0  0  0  0  0
  1  2  1  0
  2  3  1  0
  3  4  1  0
  4  5  2  0
  4  6  1  0
  6  7  1  0
  7  8  1  0
  8  9  2  0
  9 10  1  0
 10 11  1  0
 11 12  1  0
 12 13  1  0
 13 14  2  0
 14 15  1  0
 15 16  2  0
 16 17  1  0
 17 18  2  0
 10  6  2  0
 18 13  1  0
  1 19  1  0
  1 20  1  0
  1 21  1  0
  2 22  1  0
  2 23  1  0
 11 24  1  0
 11 25  1  0
 14 26  1  0
 15 27  1  0
 16 28  1  0
 18 29  1  0
M  END
>  <Energy>  (789) 
45.46938396398599

>  <compound_id>  (789) 
87549

>  <target_id>  (789) 
1

>  <reference_id>  (789) 
123

>  <inspiration_ids>  (789) 
[123, 48]

>  <energy_score>  (789) 
-31.67130972608379

>  <distance_score>  (789) 
10.43002278683836

>  <path>  (789) 
/opt/xchem-fragalysis-2/maxwin/BulkDock/SCRATCH/511017/C87549-P123/C87549-P123.minimised.mol

>  <scratch_subdir>  (789) 
/opt/xchem-fragalysis-2/maxwin/BulkDock/SCRATCH/511017/C87549-P123

>  <fragmenstein_runtime>  (789) 
6.471397638320923

>  <fragmenstein_outcome>  (789) 
too moved

>  <fragmenstein_mode>  (789) 
expansion

>  <fragmenstein_error>  (789) 


$$$$
C87549-P48
     RDKit          3D

 29 30  0  0  0  0  0  0  0  0999 V2000
  -12.8922  -27.9378   26.7645 C   0  0  0  0  0  0  0  0  0  0  0  0
  -14.0521  -26.9807   26.7209 C   0  0  0  0  0  0  0  0  0  0  0  0
  -15.1719  -27.3744   25.9050 O   0  0  0  0  0  0  0  0  0  0  0  0
  -15.3384  -26.6797   24.7290 C   0  0  0  0  0  0  0  0  0  0  0  0
  -14.4015  -26.1679   24.1405 O   0  0  0  0  0  0  0  0  0  0  0  0
  -16.7202  -26.5815   24.3538 C   0  0  0  0  0  0  0  0  0  0  0  0
  -17.6990  -25.8576   25.5883 S   0  0  0  0  0  0  0  0  0  0  0  0
  -19.0593  -25.8883   24.6632 N   0  0  0  0  0  0  0  0  0  0  0  0
  -18.8579  -26.3973   23.4653 N   0  0  0  0  0  0  0  0  0  0  0  0
  -17.5313  -26.8069   23.2266 C   0  0  0  0  0  0  0  0  0  0  0  0
  -17.3768  -27.5323   21.8442 C   0  0  0  0  0  0  0  0  0  0  0  0
  -16.4771  -26.9497   20.8781 O   0  0  0  0  0  0  0  0  0  0  0  0
  -16.4993  -27.2231   19.5231 C   0  0  0  0  0  0  0  0  0  0  0  0
  -15.2882  -27.0562   18.8216 C   0  0  0  0  0  0  0  0  0  0  0  0
  -15.2190  -27.1845   17.4300 C   0  0  0  0  0  0  0  0  0  0  0  0
  -16.3835  -27.4806   16.7541 C   0  0  0  0  0  0  0  0  0  0  0  0
  -17.5696  -27.6542   17.3774 N   0  0  0  0  0  0  0  0  0  0  0  0
  -17.6027  -27.5104   18.7378 C   0  0  0  0  0  0  0  0  0  0  0  0
  -12.1817  -27.6464   27.5446 H   0  0  0  0  0  0  0  0  0  0  0  0
  -13.2290  -28.9581   26.9660 H   0  0  0  0  0  0  0  0  0  0  0  0
  -12.3576  -27.9147   25.8157 H   0  0  0  0  0  0  0  0  0  0  0  0
  -13.6678  -26.0003   26.4197 H   0  0  0  0  0  0  0  0  0  0  0  0
  -14.4444  -26.9081   27.7403 H   0  0  0  0  0  0  0  0  0  0  0  0
  -17.0438  -28.5557   22.0442 H   0  0  0  0  0  0  0  0  0  0  0  0
  -18.3787  -27.5985   21.4048 H   0  0  0  0  0  0  0  0  0  0  0  0
  -14.3819  -26.7848   19.3578 H   0  0  0  0  0  0  0  0  0  0  0  0
  -14.2844  -27.0428   16.8997 H   0  0  0  0  0  0  0  0  0  0  0  0
  -16.4029  -27.5887   15.6739 H   0  0  0  0  0  0  0  0  0  0  0  0
  -18.5973  -27.6044   19.1615 H   0  0  0  0  0  0  0  0  0  0  0  0
  1  2  1  0
  2  3  1  0
  3  4  1  0
  4  5  2  0
  4  6  1  0
  6  7  1  0
  7  8  1  0
  8  9  2  0
  9 10  1  0
 10 11  1  0
 11 12  1  0
 12 13  1  0
 13 14  2  0
 14 15  1  0
 15 16  2  0
 16 17  1  0
 17 18  2  0
 10  6  2  0
 18 13  1  0
  1 19  1  0
  1 20  1  0
  1 21  1  0
  2 22  1  0
  2 23  1  0
 11 24  1  0
 11 25  1  0
 14 26  1  0
 15 27  1  0
 16 28  1  0
 18 29  1  0
M  END
>  <Energy>  (790) 
43.771719784893598

>  <compound_id>  (790) 
87549

>  <target_id>  (790) 
1

>  <reference_id>  (790) 
48

>  <inspiration_ids>  (790) 
[123, 48]

>  <energy_score>  (790) 
-38.22070266360291

>  <distance_score>  (790) 
9.442447471021524

>  <path>  (790) 
/opt/xchem-fragalysis-2/maxwin/BulkDock/SCRATCH/511017/C87549-P48/C87549-P48.minimised.mol

>  <scratch_subdir>  (790) 
/opt/xchem-fragalysis-2/maxwin/BulkDock/SCRATCH/511017/C87549-P48

>  <fragmenstein_runtime>  (790) 
4.585171461105347

>  <fragmenstein_outcome>  (790) 
too moved

>  <fragmenstein_mode>  (790) 
expansion

>  <fragmenstein_error>  (790) 


$$$$
C87550-P123
     RDKit          3D

 28 29  0  0  0  0  0  0  0  0999 V2000
  -14.7799  -24.9422   25.0650 C   0  0  0  0  0  0  0  0  0  0  0  0
  -15.0182  -26.3296   25.6151 C   0  0  0  0  0  0  0  0  0  0  0  0
  -16.1605  -26.9584   25.0135 O   0  0  0  0  0  0  0  0  0  0  0  0
  -15.9494  -27.5032   23.7799 C   0  0  0  0  0  0  0  0  0  0  0  0
  -14.9864  -27.2470   23.0746 O   0  0  0  0  0  0  0  0  0  0  0  0
  -16.9490  -28.4779   23.4834 C   0  0  0  0  0  0  0  0  0  0  0  0
  -17.0944  -29.7515   24.6359 S   0  0  0  0  0  0  0  0  0  0  0  0
  -18.2676  -30.5204   23.7590 N   0  0  0  0  0  0  0  0  0  0  0  0
  -18.5819  -29.8882   22.6416 N   0  0  0  0  0  0  0  0  0  0  0  0
  -17.8268  -28.7312   22.4252 C   0  0  0  0  0  0  0  0  0  0  0  0
  -18.2434  -27.8493   21.2524 C   0  0  0  0  0  0  0  0  0  0  0  0
  -17.9795  -28.3682   19.8299 C   0  0  0  0  0  0  0  0  0  0  0  0
  -17.6472  -29.6657   19.4400 C   0  0  0  0  0  0  0  0  0  0  0  0
  -17.3724  -29.9576   18.0888 C   0  0  0  0  0  0  0  0  0  0  0  0
  -17.4572  -28.9488   17.1422 C   0  0  0  0  0  0  0  0  0  0  0  0
  -17.8413  -27.6998   17.4491 N   0  0  0  0  0  0  0  0  0  0  0  0
  -18.1228  -27.4640   18.7586 C   0  0  0  0  0  0  0  0  0  0  0  0
  -13.9354  -24.4644   25.5673 H   0  0  0  0  0  0  0  0  0  0  0  0
  -15.6793  -24.3299   25.1721 H   0  0  0  0  0  0  0  0  0  0  0  0
  -14.5679  -24.9698   23.9973 H   0  0  0  0  0  0  0  0  0  0  0  0
  -14.1306  -26.9605   25.4898 H   0  0  0  0  0  0  0  0  0  0  0  0
  -15.2171  -26.2713   26.6900 H   0  0  0  0  0  0  0  0  0  0  0  0
  -19.3232  -27.6722   21.3412 H   0  0  0  0  0  0  0  0  0  0  0  0
  -17.7490  -26.8809   21.3777 H   0  0  0  0  0  0  0  0  0  0  0  0
  -17.5704  -30.4666   20.1722 H   0  0  0  0  0  0  0  0  0  0  0  0
  -17.0916  -30.9631   17.7917 H   0  0  0  0  0  0  0  0  0  0  0  0
  -17.2391  -29.1336   16.0950 H   0  0  0  0  0  0  0  0  0  0  0  0
  -18.4958  -26.4589   18.9398 H   0  0  0  0  0  0  0  0  0  0  0  0
  1  2  1  0
  2  3  1  0
  3  4  1  0
  4  5  2  0
  4  6  1  0
  6  7  1  0
  7  8  1  0
  8  9  2  0
  9 10  1  0
 10 11  1  0
 11 12  1  0
 12 13  2  0
 13 14  1  0
 14 15  2  0
 15 16  1  0
 16 17  2  0
 10  6  2  0
 17 12  1  0
  1 18  1  0
  1 19  1  0
  1 20  1  0
  2 21  1  0
  2 22  1  0
 11 23  1  0
 11 24  1  0
 13 25  1  0
 14 26  1  0
 15 27  1  0
 17 28  1  0
M  END
>  <Energy>  (791) 
23.039648591917437

>  <compound_id>  (791) 
87550

>  <target_id>  (791) 
1

>  <reference_id>  (791) 
123

>  <inspiration_ids>  (791) 
[123, 48]

>  <energy_score>  (791) 
-20.20062159334725

>  <distance_score>  (791) 
10.701894726025493

>  <path>  (791) 
/opt/xchem-fragalysis-2/maxwin/BulkDock/SCRATCH/511017/C87550-P123/C87550-P123.minimised.mol

>  <scratch_subdir>  (791) 
/opt/xchem-fragalysis-2/maxwin/BulkDock/SCRATCH/511017/C87550-P123

>  <fragmenstein_runtime>  (791) 
6.764570951461792

>  <fragmenstein_outcome>  (791) 
too moved

>  <fragmenstein_mode>  (791) 
expansion

>  <fragmenstein_error>  (791) 


$$$$
C87550-P48
     RDKit          3D

 28 29  0  0  0  0  0  0  0  0999 V2000
  -11.4871  -25.7151   26.5456 C   0  0  0  0  0  0  0  0  0  0  0  0
  -11.5780  -27.1778   26.1642 C   0  0  0  0  0  0  0  0  0  0  0  0
  -11.7822  -27.3726   24.7347 O   0  0  0  0  0  0  0  0  0  0  0  0
  -10.6041  -27.5577   23.7812 C   0  0  0  0  0  0  0  0  0  0  0  0
   -9.5444  -27.3545   24.3977 O   0  0  0  0  0  0  0  0  0  0  0  0
  -10.3785  -28.2623   21.7891 C   0  0  0  0  0  0  0  0  0  0  0  0
   -8.2016  -29.2100   22.0367 S   0  0  0  0  0  0  0  0  0  0  0  0
   -8.6928  -30.7504   22.4141 N   0  0  0  0  0  0  0  0  0  0  0  0
   -9.9009  -31.0767   22.1119 N   0  0  0  0  0  0  0  0  0  0  0  0
  -10.5138  -30.0769   21.3801 C   0  0  0  0  0  0  0  0  0  0  0  0
  -11.6470  -30.8840   20.3644 C   0  0  0  0  0  0  0  0  0  0  0  0
  -12.3980  -30.3261   19.1075 C   0  0  0  0  0  0  0  0  0  0  0  0
  -12.6862  -29.0134   18.6978 C   0  0  0  0  0  0  0  0  0  0  0  0
  -13.2402  -28.7124   17.4398 C   0  0  0  0  0  0  0  0  0  0  0  0
  -13.5412  -29.7487   16.5875 C   0  0  0  0  0  0  0  0  0  0  0  0
  -13.3517  -31.0346   16.9289 N   0  0  0  0  0  0  0  0  0  0  0  0
  -12.8153  -31.2834   18.1601 C   0  0  0  0  0  0  0  0  0  0  0  0
  -11.3459  -25.6073   27.6250 H   0  0  0  0  0  0  0  0  0  0  0  0
  -10.6591  -25.2175   26.0354 H   0  0  0  0  0  0  0  0  0  0  0  0
  -12.4066  -25.1902   26.2687 H   0  0  0  0  0  0  0  0  0  0  0  0
  -10.7293  -27.7545   26.5229 H   0  0  0  0  0  0  0  0  0  0  0  0
  -12.4598  -27.6118   26.6481 H   0  0  0  0  0  0  0  0  0  0  0  0
  -11.0420  -31.7319   20.0060 H   0  0  0  0  0  0  0  0  0  0  0  0
  -12.3874  -31.3107   21.0536 H   0  0  0  0  0  0  0  0  0  0  0  0
  -12.4428  -28.1538   19.2954 H   0  0  0  0  0  0  0  0  0  0  0  0
  -13.4087  -27.6830   17.1412 H   0  0  0  0  0  0  0  0  0  0  0  0
  -13.9571  -29.5755   15.6002 H   0  0  0  0  0  0  0  0  0  0  0  0
  -12.6765  -32.3466   18.3556 H   0  0  0  0  0  0  0  0  0  0  0  0
  1  2  1  0
  2  3  1  0
  3  4  1  0
  4  5  2  0
  4  6  1  0
  6  7  1  0
  7  8  1  0
  8  9  2  0
  9 10  1  0
 10 11  1  0
 11 12  1  0
 12 13  2  0
 13 14  1  0
 14 15  2  0
 15 16  1  0
 16 17  2  0
 10  6  2  0
 17 12  1  0
  1 18  1  0
  1 19  1  0
  1 20  1  0
  2 21  1  0
  2 22  1  0
 11 23  1  0
 11 24  1  0
 13 25  1  0
 14 26  1  0
 15 27  1  0
 17 28  1  0
M  END
>  <Energy>  (792) 
396.4463815046322

>  <compound_id>  (792) 
87550

>  <target_id>  (792) 
1

>  <reference_id>  (792) 
48

>  <inspiration_ids>  (792) 
[123, 48]

>  <energy_score>  (792) 
353.20611131936016

>  <distance_score>  (792) 
9.819361629416482

>  <path>  (792) 
/opt/xchem-fragalysis-2/maxwin/BulkDock/SCRATCH/511017/C87550-P48/C87550-P48.minimised.mol

>  <scratch_subdir>  (792) 
/opt/xchem-fragalysis-2/maxwin/BulkDock/SCRATCH/511017/C87550-P48

>  <fragmenstein_runtime>  (792) 
5.479182004928589

>  <fragmenstein_outcome>  (792) 
too moved

>  <fragmenstein_mode>  (792) 
expansion

>  <fragmenstein_error>  (792) 


$$$$
C87553-P123
     RDKit          3D

 28 29  0  0  0  0  0  0  0  0999 V2000
  -14.1329  -25.0726   17.4447 C   0  0  0  0  0  0  0  0  0  0  0  0
  -15.3848  -25.4580   16.6169 C   0  0  0  0  0  0  0  0  0  0  0  0
  -15.1132  -25.8368   15.2409 O   0  0  0  0  0  0  0  0  0  0  0  0
  -14.7760  -27.1434   14.9918 C   0  0  0  0  0  0  0  0  0  0  0  0
  -15.3892  -27.8564   14.2130 O   0  0  0  0  0  0  0  0  0  0  0  0
  -13.5824  -27.4833   15.6846 C   0  0  0  0  0  0  0  0  0  0  0  0
  -13.6509  -28.4037   17.1081 S   0  0  0  0  0  0  0  0  0  0  0  0
  -12.3078  -27.6841   17.7168 N   0  0  0  0  0  0  0  0  0  0  0  0
  -11.6606  -26.9347   16.8518 N   0  0  0  0  0  0  0  0  0  0  0  0
  -12.3061  -26.9506   15.5756 C   0  0  0  0  0  0  0  0  0  0  0  0
  -11.7775  -26.2787   14.3709 C   0  0  0  0  0  0  0  0  0  0  0  0
  -10.7278  -25.6526   14.3487 O   0  0  0  0  0  0  0  0  0  0  0  0
  -12.6192  -26.4311   13.2355 O   0  0  0  0  0  0  0  0  0  0  0  0
  -12.2980  -25.9817   11.9252 C   0  0  0  0  0  0  0  0  0  0  0  0
  -11.0482  -26.1567   11.3502 C   0  0  0  0  0  0  0  0  0  0  0  0
  -10.8391  -25.7135   10.0433 C   0  0  0  0  0  0  0  0  0  0  0  0
  -11.8898  -25.1262    9.3513 C   0  0  0  0  0  0  0  0  0  0  0  0
  -13.1268  -24.9712    9.8631 N   0  0  0  0  0  0  0  0  0  0  0  0
  -13.3025  -25.4215   11.1326 C   0  0  0  0  0  0  0  0  0  0  0  0
  -14.1912  -24.0448   17.7873 H   0  0  0  0  0  0  0  0  0  0  0  0
  -13.9546  -25.7385   18.2835 H   0  0  0  0  0  0  0  0  0  0  0  0
  -13.3116  -25.0876   16.7477 H   0  0  0  0  0  0  0  0  0  0  0  0
  -16.0532  -24.5923   16.5565 H   0  0  0  0  0  0  0  0  0  0  0  0
  -15.9494  -26.2608   17.1058 H   0  0  0  0  0  0  0  0  0  0  0  0
  -10.2297  -26.6078   11.9036 H   0  0  0  0  0  0  0  0  0  0  0  0
   -9.8635  -25.8123    9.5773 H   0  0  0  0  0  0  0  0  0  0  0  0
  -11.7537  -24.7638    8.3363 H   0  0  0  0  0  0  0  0  0  0  0  0
  -14.3106  -25.3060   11.5216 H   0  0  0  0  0  0  0  0  0  0  0  0
  1  2  1  0
  2  3  1  0
  3  4  1  0
  4  5  2  0
  4  6  1  0
  6  7  1  0
  7  8  1  0
  8  9  2  0
  9 10  1  0
 10 11  1  0
 11 12  2  0
 11 13  1  0
 13 14  1  0
 14 15  2  0
 15 16  1  0
 16 17  2  0
 17 18  1  0
 18 19  2  0
 10  6  2  0
 19 14  1  0
  1 20  1  0
  1 21  1  0
  1 22  1  0
  2 23  1  0
  2 24  1  0
 15 25  1  0
 16 26  1  0
 17 27  1  0
 19 28  1  0
M  END
>  <Energy>  (793) 
59.853378741603294

>  <compound_id>  (793) 
87553

>  <target_id>  (793) 
1

>  <reference_id>  (793) 
123

>  <inspiration_ids>  (793) 
[123, 48]

>  <energy_score>  (793) 
-51.164544203398236

>  <distance_score>  (793) 
11.971002961837417

>  <path>  (793) 
/opt/xchem-fragalysis-2/maxwin/BulkDock/SCRATCH/511017/C87553-P123/C87553-P123.minimised.mol

>  <scratch_subdir>  (793) 
/opt/xchem-fragalysis-2/maxwin/BulkDock/SCRATCH/511017/C87553-P123

>  <fragmenstein_runtime>  (793) 
9.733431577682495

>  <fragmenstein_outcome>  (793) 
too moved

>  <fragmenstein_mode>  (793) 
expansion

>  <fragmenstein_error>  (793) 


$$$$
C87553-P48
     RDKit          3D

 28 29  0  0  0  0  0  0  0  0999 V2000
  -13.5747  -23.5513   25.2320 C   0  0  0  0  0  0  0  0  0  0  0  0
  -12.8656  -24.4445   26.2335 C   0  0  0  0  0  0  0  0  0  0  0  0
  -11.4536  -24.2676   26.1763 O   0  0  0  0  0  0  0  0  0  0  0  0
  -10.4862  -25.0477   25.6431 C   0  0  0  0  0  0  0  0  0  0  0  0
   -9.3571  -24.6318   25.7027 O   0  0  0  0  0  0  0  0  0  0  0  0
  -10.8277  -26.3943   25.0632 C   0  0  0  0  0  0  0  0  0  0  0  0
  -11.1572  -27.2739   26.5535 S   0  0  0  0  0  0  0  0  0  0  0  0
  -12.2950  -27.9740   25.7231 N   0  0  0  0  0  0  0  0  0  0  0  0
  -11.9852  -27.8159   24.4616 N   0  0  0  0  0  0  0  0  0  0  0  0
  -10.6213  -27.1966   23.3544 C   0  0  0  0  0  0  0  0  0  0  0  0
  -10.3490  -26.4573   21.3645 C   0  0  0  0  0  0  0  0  0  0  0  0
   -9.5645  -25.5576   21.3344 O   0  0  0  0  0  0  0  0  0  0  0  0
  -10.9738  -26.7339   19.5707 O   0  0  0  0  0  0  0  0  0  0  0  0
  -11.7197  -27.0634   18.0852 C   0  0  0  0  0  0  0  0  0  0  0  0
  -13.1078  -27.1193   18.0953 C   0  0  0  0  0  0  0  0  0  0  0  0
  -13.7492  -27.1835   16.8559 C   0  0  0  0  0  0  0  0  0  0  0  0
  -12.9846  -27.1791   15.6913 C   0  0  0  0  0  0  0  0  0  0  0  0
  -11.6345  -27.1191   15.6778 N   0  0  0  0  0  0  0  0  0  0  0  0
  -11.0090  -27.0495   16.8813 C   0  0  0  0  0  0  0  0  0  0  0  0
  -13.8102  -24.1089   24.3250 H   0  0  0  0  0  0  0  0  0  0  0  0
  -12.9663  -22.6881   24.9483 H   0  0  0  0  0  0  0  0  0  0  0  0
  -14.5547  -23.2247   25.5672 H   0  0  0  0  0  0  0  0  0  0  0  0
  -13.1895  -25.4764   26.1084 H   0  0  0  0  0  0  0  0  0  0  0  0
  -13.0643  -24.1425   27.2509 H   0  0  0  0  0  0  0  0  0  0  0  0
  -13.6754  -27.0721   19.0134 H   0  0  0  0  0  0  0  0  0  0  0  0
  -14.8320  -27.2211   16.7933 H   0  0  0  0  0  0  0  0  0  0  0  0
  -13.4545  -27.2238   14.7125 H   0  0  0  0  0  0  0  0  0  0  0  0
   -9.9322  -26.9719   16.8110 H   0  0  0  0  0  0  0  0  0  0  0  0
  1  2  1  0
  2  3  1  0
  3  4  1  0
  4  5  2  0
  4  6  1  0
  6  7  1  0
  7  8  1  0
  8  9  2  0
  9 10  1  0
 10 11  1  0
 11 12  2  0
 11 13  1  0
 13 14  1  0
 14 15  2  0
 15 16  1  0
 16 17  2  0
 17 18  1  0
 18 19  2  0
 10  6  2  0
 19 14  1  0
  1 20  1  0
  1 21  1  0
  1 22  1  0
  2 23  1  0
  2 24  1  0
 15 25  1  0
 16 26  1  0
 17 27  1  0
 19 28  1  0
M  END
>  <Energy>  (794) 
627.28168607663645

>  <compound_id>  (794) 
87553

>  <target_id>  (794) 
1

>  <reference_id>  (794) 
48

>  <inspiration_ids>  (794) 
[123, 48]

>  <energy_score>  (794) 
553.5205995480096

>  <distance_score>  (794) 
7.468610620996151

>  <path>  (794) 
/opt/xchem-fragalysis-2/maxwin/BulkDock/SCRATCH/511017/C87553-P48/C87553-P48.minimised.mol

>  <scratch_subdir>  (794) 
/opt/xchem-fragalysis-2/maxwin/BulkDock/SCRATCH/511017/C87553-P48

>  <fragmenstein_runtime>  (794) 
6.569525241851807

>  <fragmenstein_outcome>  (794) 
too moved

>  <fragmenstein_mode>  (794) 
expansion

>  <fragmenstein_error>  (794) 


$$$$
C87554-P123
     RDKit          3D

 31 32  0  0  0  0  0  0  0  0999 V2000
  -14.9647  -25.7508   24.4777 C   0  0  0  0  0  0  0  0  0  0  0  0
  -14.9400  -24.2558   24.7318 C   0  0  0  0  0  0  0  0  0  0  0  0
  -14.5260  -23.4622   23.5971 O   0  0  0  0  0  0  0  0  0  0  0  0
  -13.2412  -23.0251   23.6310 C   0  0  0  0  0  0  0  0  0  0  0  0
  -12.5331  -23.1911   24.6232 O   0  0  0  0  0  0  0  0  0  0  0  0
  -12.7363  -22.4500   22.3850 C   0  0  0  0  0  0  0  0  0  0  0  0
  -11.6277  -21.1994   22.7883 S   0  0  0  0  0  0  0  0  0  0  0  0
  -10.8941  -21.3209   21.3492 N   0  0  0  0  0  0  0  0  0  0  0  0
  -11.5574  -21.9672   20.4385 N   0  0  0  0  0  0  0  0  0  0  0  0
  -12.6003  -22.7117   20.9193 C   0  0  0  0  0  0  0  0  0  0  0  0
  -13.0385  -24.1304   19.8424 C   0  0  0  0  0  0  0  0  0  0  0  0
  -13.7656  -24.4145   18.2862 C   0  0  0  0  0  0  0  0  0  0  0  0
  -13.7201  -25.1796   16.8850 C   0  0  0  0  0  0  0  0  0  0  0  0
  -12.8296  -26.2074   16.5372 C   0  0  0  0  0  0  0  0  0  0  0  0
  -12.8294  -26.7379   15.2432 C   0  0  0  0  0  0  0  0  0  0  0  0
  -13.7546  -26.2641   14.3292 C   0  0  0  0  0  0  0  0  0  0  0  0
  -14.6792  -25.3301   14.6266 N   0  0  0  0  0  0  0  0  0  0  0  0
  -14.6438  -24.8205   15.8851 C   0  0  0  0  0  0  0  0  0  0  0  0
  -15.5043  -26.2599   25.2830 H   0  0  0  0  0  0  0  0  0  0  0  0
  -15.4451  -25.9972   23.5304 H   0  0  0  0  0  0  0  0  0  0  0  0
  -13.9540  -26.1627   24.4644 H   0  0  0  0  0  0  0  0  0  0  0  0
  -14.2809  -24.1175   25.5858 H   0  0  0  0  0  0  0  0  0  0  0  0
  -15.9496  -23.9228   24.9856 H   0  0  0  0  0  0  0  0  0  0  0  0
  -13.7855  -24.6546   20.4502 H   0  0  0  0  0  0  0  0  0  0  0  0
  -12.0854  -24.6188   19.8787 H   0  0  0  0  0  0  0  0  0  0  0  0
  -14.1124  -25.3888   18.6605 H   0  0  0  0  0  0  0  0  0  0  0  0
  -14.4192  -23.5743   18.0510 H   0  0  0  0  0  0  0  0  0  0  0  0
  -12.0960  -26.5738   17.2479 H   0  0  0  0  0  0  0  0  0  0  0  0
  -12.1101  -27.4975   14.9564 H   0  0  0  0  0  0  0  0  0  0  0  0
  -13.7814  -26.6408   13.3112 H   0  0  0  0  0  0  0  0  0  0  0  0
  -15.3868  -24.0465   16.0647 H   0  0  0  0  0  0  0  0  0  0  0  0
  1  2  1  0
  2  3  1  0
  3  4  1  0
  4  5  2  0
  4  6  1  0
  6  7  1  0
  7  8  1  0
  8  9  2  0
  9 10  1  0
 10 11  1  0
 11 12  1  0
 12 13  1  0
 13 14  2  0
 14 15  1  0
 15 16  2  0
 16 17  1  0
 17 18  2  0
 10  6  2  0
 18 13  1  0
  1 19  1  0
  1 20  1  0
  1 21  1  0
  2 22  1  0
  2 23  1  0
 11 24  1  0
 11 25  1  0
 12 26  1  0
 12 27  1  0
 14 28  1  0
 15 29  1  0
 16 30  1  0
 18 31  1  0
M  END
>  <Energy>  (795) 
141.45902896443332

>  <compound_id>  (795) 
87554

>  <target_id>  (795) 
1

>  <reference_id>  (795) 
123

>  <inspiration_ids>  (795) 
[123, 48]

>  <energy_score>  (795) 
55.08728118650674

>  <distance_score>  (795) 
8.388903446422999

>  <path>  (795) 
/opt/xchem-fragalysis-2/maxwin/BulkDock/SCRATCH/511017/C87554-P123/C87554-P123.minimised.mol

>  <scratch_subdir>  (795) 
/opt/xchem-fragalysis-2/maxwin/BulkDock/SCRATCH/511017/C87554-P123

>  <fragmenstein_runtime>  (795) 
8.607340097427368

>  <fragmenstein_outcome>  (795) 
too moved

>  <fragmenstein_mode>  (795) 
expansion

>  <fragmenstein_error>  (795) 


$$$$
C87554-P48
     RDKit          3D

 31 32  0  0  0  0  0  0  0  0999 V2000
   -9.7868  -29.5082   29.0468 C   0  0  0  0  0  0  0  0  0  0  0  0
  -10.8918  -28.5089   28.8039 C   0  0  0  0  0  0  0  0  0  0  0  0
  -10.8489  -28.1229   27.4226 O   0  0  0  0  0  0  0  0  0  0  0  0
  -11.9944  -28.2798   26.7133 C   0  0  0  0  0  0  0  0  0  0  0  0
  -12.9980  -28.8530   27.1232 O   0  0  0  0  0  0  0  0  0  0  0  0
  -11.9258  -27.6114   25.3940 C   0  0  0  0  0  0  0  0  0  0  0  0
  -12.7077  -26.0503   25.9157 S   0  0  0  0  0  0  0  0  0  0  0  0
  -11.1361  -25.4617   26.0476 N   0  0  0  0  0  0  0  0  0  0  0  0
  -10.2947  -26.1479   25.2800 N   0  0  0  0  0  0  0  0  0  0  0  0
  -10.8388  -27.2147   24.2639 C   0  0  0  0  0  0  0  0  0  0  0  0
  -10.4795  -26.6580   22.1918 C   0  0  0  0  0  0  0  0  0  0  0  0
  -11.2080  -25.1347   20.8037 C   0  0  0  0  0  0  0  0  0  0  0  0
  -12.0819  -25.8639   19.0957 C   0  0  0  0  0  0  0  0  0  0  0  0
  -11.6091  -26.6321   17.9639 C   0  0  0  0  0  0  0  0  0  0  0  0
  -12.4170  -26.9811   16.8603 C   0  0  0  0  0  0  0  0  0  0  0  0
  -13.7420  -26.6305   16.8778 C   0  0  0  0  0  0  0  0  0  0  0  0
  -14.2940  -26.0019   17.9223 N   0  0  0  0  0  0  0  0  0  0  0  0
  -13.4630  -25.6737   18.9590 C   0  0  0  0  0  0  0  0  0  0  0  0
   -9.7264  -29.7722   30.1064 H   0  0  0  0  0  0  0  0  0  0  0  0
   -8.8165  -29.1192   28.7250 H   0  0  0  0  0  0  0  0  0  0  0  0
   -9.9664  -30.4225   28.4714 H   0  0  0  0  0  0  0  0  0  0  0  0
  -11.8542  -28.9333   29.1077 H   0  0  0  0  0  0  0  0  0  0  0  0
  -10.7243  -27.6087   29.4033 H   0  0  0  0  0  0  0  0  0  0  0  0
  -10.5188  -27.6763   21.6318 H   0  0  0  0  0  0  0  0  0  0  0  0
   -9.7477  -26.0546   21.6899 H   0  0  0  0  0  0  0  0  0  0  0  0
  -10.4999  -24.4092   20.4586 H   0  0  0  0  0  0  0  0  0  0  0  0
  -12.0954  -24.5137   20.9087 H   0  0  0  0  0  0  0  0  0  0  0  0
  -10.5910  -26.9331   17.7843 H   0  0  0  0  0  0  0  0  0  0  0  0
  -11.9915  -27.5009   16.0084 H   0  0  0  0  0  0  0  0  0  0  0  0
  -14.4070  -26.8593   16.0524 H   0  0  0  0  0  0  0  0  0  0  0  0
  -13.9302  -25.1500   19.7373 H   0  0  0  0  0  0  0  0  0  0  0  0
  1  2  1  0
  2  3  1  0
  3  4  1  0
  4  5  2  0
  4  6  1  0
  6  7  1  0
  7  8  1  0
  8  9  2  0
  9 10  1  0
 10 11  1  0
 11 12  1  0
 12 13  1  0
 13 14  2  0
 14 15  1  0
 15 16  2  0
 16 17  1  0
 17 18  2  0
 10  6  2  0
 18 13  1  0
  1 19  1  0
  1 20  1  0
  1 21  1  0
  2 22  1  0
  2 23  1  0
 11 24  1  0
 11 25  1  0
 12 26  1  0
 12 27  1  0
 14 28  1  0
 15 29  1  0
 16 30  1  0
 18 31  1  0
M  END
>  <Energy>  (796) 
539.72910040945874

>  <compound_id>  (796) 
87554

>  <target_id>  (796) 
1

>  <reference_id>  (796) 
48

>  <inspiration_ids>  (796) 
[123, 48]

>  <energy_score>  (796) 
453.3573526315259

>  <distance_score>  (796) 
7.8806873799609525

>  <path>  (796) 
/opt/xchem-fragalysis-2/maxwin/BulkDock/SCRATCH/511017/C87554-P48/C87554-P48.minimised.mol

>  <scratch_subdir>  (796) 
/opt/xchem-fragalysis-2/maxwin/BulkDock/SCRATCH/511017/C87554-P48

>  <fragmenstein_runtime>  (796) 
6.15275764465332

>  <fragmenstein_outcome>  (796) 
too moved

>  <fragmenstein_mode>  (796) 
expansion

>  <fragmenstein_error>  (796) 


$$$$
C87555-P123
     RDKit          3D

 32 33  0  0  0  0  0  0  0  0999 V2000
  -12.6349  -25.9162   27.6363 C   0  0  0  0  0  0  0  0  0  0  0  0
  -13.1802  -27.2874   27.2615 C   0  0  0  0  0  0  0  0  0  0  0  0
  -14.2012  -27.1840   26.2536 O   0  0  0  0  0  0  0  0  0  0  0  0
  -13.7537  -26.8920   24.9958 C   0  0  0  0  0  0  0  0  0  0  0  0
  -12.5655  -26.9116   24.6799 O   0  0  0  0  0  0  0  0  0  0  0  0
  -14.8268  -26.4531   24.0989 C   0  0  0  0  0  0  0  0  0  0  0  0
  -16.1820  -25.6765   24.9237 S   0  0  0  0  0  0  0  0  0  0  0  0
  -15.4629  -24.1676   24.6382 N   0  0  0  0  0  0  0  0  0  0  0  0
  -14.5809  -24.2461   23.6489 N   0  0  0  0  0  0  0  0  0  0  0  0
  -14.6413  -25.5429   23.0279 C   0  0  0  0  0  0  0  0  0  0  0  0
  -14.5346  -25.7120   21.1277 C   0  0  0  0  0  0  0  0  0  0  0  0
  -13.8057  -25.1957   19.5098 C   0  0  0  0  0  0  0  0  0  0  0  0
  -13.9744  -26.2123   18.4186 O   0  0  0  0  0  0  0  0  0  0  0  0
  -13.8344  -25.9396   17.0786 C   0  0  0  0  0  0  0  0  0  0  0  0
  -14.7756  -25.2394   16.3290 C   0  0  0  0  0  0  0  0  0  0  0  0
  -14.6569  -25.1679   14.9332 C   0  0  0  0  0  0  0  0  0  0  0  0
  -13.5944  -25.8090   14.3204 C   0  0  0  0  0  0  0  0  0  0  0  0
  -12.6702  -26.5088   15.0051 N   0  0  0  0  0  0  0  0  0  0  0  0
  -12.8222  -26.5703   16.3572 C   0  0  0  0  0  0  0  0  0  0  0  0
  -13.4503  -25.2290   27.8830 H   0  0  0  0  0  0  0  0  0  0  0  0
  -11.9599  -25.9921   28.4937 H   0  0  0  0  0  0  0  0  0  0  0  0
  -12.0832  -25.4657   26.8056 H   0  0  0  0  0  0  0  0  0  0  0  0
  -13.6488  -27.7479   28.1366 H   0  0  0  0  0  0  0  0  0  0  0  0
  -12.3777  -27.9590   26.9404 H   0  0  0  0  0  0  0  0  0  0  0  0
  -14.1660  -24.6937   21.2114 H   0  0  0  0  0  0  0  0  0  0  0  0
  -15.4991  -26.1446   21.0556 H   0  0  0  0  0  0  0  0  0  0  0  0
  -12.7989  -24.8066   19.6949 H   0  0  0  0  0  0  0  0  0  0  0  0
  -14.0280  -24.2967   18.9688 H   0  0  0  0  0  0  0  0  0  0  0  0
  -15.6329  -24.7696   16.7948 H   0  0  0  0  0  0  0  0  0  0  0  0
  -15.3874  -24.6266   14.3420 H   0  0  0  0  0  0  0  0  0  0  0  0
  -13.4556  -25.7788   13.2441 H   0  0  0  0  0  0  0  0  0  0  0  0
  -12.0763  -27.1710   16.8700 H   0  0  0  0  0  0  0  0  0  0  0  0
  1  2  1  0
  2  3  1  0
  3  4  1  0
  4  5  2  0
  4  6  1  0
  6  7  1  0
  7  8  1  0
  8  9  2  0
  9 10  1  0
 10 11  1  0
 11 12  1  0
 12 13  1  0
 13 14  1  0
 14 15  2  0
 15 16  1  0
 16 17  2  0
 17 18  1  0
 18 19  2  0
 10  6  2  0
 19 14  1  0
  1 20  1  0
  1 21  1  0
  1 22  1  0
  2 23  1  0
  2 24  1  0
 11 25  1  0
 11 26  1  0
 12 27  1  0
 12 28  1  0
 15 29  1  0
 16 30  1  0
 17 31  1  0
 19 32  1  0
M  END
>  <Energy>  (797) 
234.40075321903925

>  <compound_id>  (797) 
87555

>  <target_id>  (797) 
1

>  <reference_id>  (797) 
123

>  <inspiration_ids>  (797) 
[123, 48]

>  <energy_score>  (797) 
126.26836895737455

>  <distance_score>  (797) 
7.616074762384887

>  <path>  (797) 
/opt/xchem-fragalysis-2/maxwin/BulkDock/SCRATCH/511017/C87555-P123/C87555-P123.minimised.mol

>  <scratch_subdir>  (797) 
/opt/xchem-fragalysis-2/maxwin/BulkDock/SCRATCH/511017/C87555-P123

>  <fragmenstein_runtime>  (797) 
7.2693140506744385

>  <fragmenstein_outcome>  (797) 
too moved

>  <fragmenstein_mode>  (797) 
expansion

>  <fragmenstein_error>  (797) 


$$$$
C87555-P48
     RDKit          3D

 32 33  0  0  0  0  0  0  0  0999 V2000
  -16.1136  -29.1139   26.6030 C   0  0  0  0  0  0  0  0  0  0  0  0
  -15.4382  -27.8102   26.9387 C   0  0  0  0  0  0  0  0  0  0  0  0
  -14.0209  -27.9837   26.8011 O   0  0  0  0  0  0  0  0  0  0  0  0
  -13.4335  -27.4231   25.7083 C   0  0  0  0  0  0  0  0  0  0  0  0
  -14.0378  -26.8910   24.7911 O   0  0  0  0  0  0  0  0  0  0  0  0
  -11.9861  -27.4738   25.8017 C   0  0  0  0  0  0  0  0  0  0  0  0
  -11.4594  -27.0230   27.4175 S   0  0  0  0  0  0  0  0  0  0  0  0
  -10.7322  -25.6864   26.7555 N   0  0  0  0  0  0  0  0  0  0  0  0
  -10.3991  -25.9173   25.4971 N   0  0  0  0  0  0  0  0  0  0  0  0
  -10.8887  -27.1521   24.9019 C   0  0  0  0  0  0  0  0  0  0  0  0
  -10.3992  -27.2206   22.9396 C   0  0  0  0  0  0  0  0  0  0  0  0
  -10.5870  -27.9459   21.1173 C   0  0  0  0  0  0  0  0  0  0  0  0
  -11.9452  -28.3091   19.7798 O   0  0  0  0  0  0  0  0  0  0  0  0
  -12.3643  -27.8175   18.5358 C   0  0  0  0  0  0  0  0  0  0  0  0
  -12.5582  -28.7165   17.4807 C   0  0  0  0  0  0  0  0  0  0  0  0
  -12.9699  -28.2996   16.2044 C   0  0  0  0  0  0  0  0  0  0  0  0
  -13.2983  -26.9752   16.0243 C   0  0  0  0  0  0  0  0  0  0  0  0
  -13.2990  -26.0974   17.0406 N   0  0  0  0  0  0  0  0  0  0  0  0
  -12.8623  -26.5587   18.2587 C   0  0  0  0  0  0  0  0  0  0  0  0
  -17.1933  -29.0459   26.7640 H   0  0  0  0  0  0  0  0  0  0  0  0
  -15.9366  -29.3917   25.5606 H   0  0  0  0  0  0  0  0  0  0  0  0
  -15.7174  -29.9276   27.2197 H   0  0  0  0  0  0  0  0  0  0  0  0
  -15.6309  -27.5476   27.9839 H   0  0  0  0  0  0  0  0  0  0  0  0
  -15.8254  -26.9934   26.3205 H   0  0  0  0  0  0  0  0  0  0  0  0
  -10.4281  -26.4245   22.2341 H   0  0  0  0  0  0  0  0  0  0  0  0
  -11.1996  -27.7321   23.2567 H   0  0  0  0  0  0  0  0  0  0  0  0
  -10.2557  -27.0566   20.5995 H   0  0  0  0  0  0  0  0  0  0  0  0
  -10.3090  -28.9579   21.4426 H   0  0  0  0  0  0  0  0  0  0  0  0
  -12.3995  -29.7786   17.6252 H   0  0  0  0  0  0  0  0  0  0  0  0
  -13.0455  -29.0095   15.3885 H   0  0  0  0  0  0  0  0  0  0  0  0
  -13.6167  -26.5913   15.0611 H   0  0  0  0  0  0  0  0  0  0  0  0
  -13.0100  -25.8369   19.0511 H   0  0  0  0  0  0  0  0  0  0  0  0
  1  2  1  0
  2  3  1  0
  3  4  1  0
  4  5  2  0
  4  6  1  0
  6  7  1  0
  7  8  1  0
  8  9  2  0
  9 10  1  0
 10 11  1  0
 11 12  1  0
 12 13  1  0
 13 14  1  0
 14 15  2  0
 15 16  1  0
 16 17  2  0
 17 18  1  0
 18 19  2  0
 10  6  2  0
 19 14  1  0
  1 20  1  0
  1 21  1  0
  1 22  1  0
  2 23  1  0
  2 24  1  0
 11 25  1  0
 11 26  1  0
 12 27  1  0
 12 28  1  0
 15 29  1  0
 16 30  1  0
 17 31  1  0
 19 32  1  0
M  END
>  <Energy>  (798) 
423.06673860785895

>  <compound_id>  (798) 
87555

>  <target_id>  (798) 
1

>  <reference_id>  (798) 
48

>  <inspiration_ids>  (798) 
[123, 48]

>  <energy_score>  (798) 
314.93435434619414

>  <distance_score>  (798) 
7.580887911207429

>  <path>  (798) 
/opt/xchem-fragalysis-2/maxwin/BulkDock/SCRATCH/511017/C87555-P48/C87555-P48.minimised.mol

>  <scratch_subdir>  (798) 
/opt/xchem-fragalysis-2/maxwin/BulkDock/SCRATCH/511017/C87555-P48

>  <fragmenstein_runtime>  (798) 
5.877933025360107

>  <fragmenstein_outcome>  (798) 
too moved

>  <fragmenstein_mode>  (798) 
expansion

>  <fragmenstein_error>  (798) 


$$$$
C87556-P123
     RDKit          3D

 32 34  0  0  0  0  0  0  0  0999 V2000
  -12.0778  -24.3133   28.0382 C   0  0  0  0  0  0  0  0  0  0  0  0
  -11.9782  -23.7210   26.6460 C   0  0  0  0  0  0  0  0  0  0  0  0
  -13.1396  -24.1363   25.9053 O   0  0  0  0  0  0  0  0  0  0  0  0
  -13.5330  -23.4459   24.7776 C   0  0  0  0  0  0  0  0  0  0  0  0
  -14.7234  -23.4003   24.4663 O   0  0  0  0  0  0  0  0  0  0  0  0
  -12.4666  -22.8777   23.9302 C   0  0  0  0  0  0  0  0  0  0  0  0
  -12.6951  -21.8093   23.1326 N   0  0  0  0  0  0  0  0  0  0  0  0
  -12.4479  -22.1187   21.7923 O   0  0  0  0  0  0  0  0  0  0  0  0
  -11.6560  -23.2099   21.6905 C   0  0  0  0  0  0  0  0  0  0  0  0
  -11.4096  -23.7414   23.4258 C   0  0  0  0  0  0  0  0  0  0  0  0
  -11.3846  -25.8438   23.6847 C   0  0  0  0  0  0  0  0  0  0  0  0
  -11.1269  -26.4493   21.4501 C   0  0  0  0  0  0  0  0  0  0  0  0
  -11.7396  -24.6739   20.4558 N   0  0  0  0  0  0  0  0  0  0  0  0
  -13.1490  -24.7245   19.2792 C   0  0  0  0  0  0  0  0  0  0  0  0
  -13.5392  -25.8407   18.2840 C   0  0  0  0  0  0  0  0  0  0  0  0
  -14.2909  -25.7520   17.0604 C   0  0  0  0  0  0  0  0  0  0  0  0
  -14.7327  -24.5304   16.6550 C   0  0  0  0  0  0  0  0  0  0  0  0
  -14.3981  -23.4428   17.3488 N   0  0  0  0  0  0  0  0  0  0  0  0
  -13.5567  -23.5884   18.4852 C   0  0  0  0  0  0  0  0  0  0  0  0
  -12.1470  -25.4051   27.9897 H   0  0  0  0  0  0  0  0  0  0  0  0
  -11.2068  -24.0408   28.6407 H   0  0  0  0  0  0  0  0  0  0  0  0
  -12.9822  -23.9589   28.5438 H   0  0  0  0  0  0  0  0  0  0  0  0
  -11.9255  -22.6327   26.7134 H   0  0  0  0  0  0  0  0  0  0  0  0
  -11.0811  -24.1144   26.1634 H   0  0  0  0  0  0  0  0  0  0  0  0
  -10.6258  -25.8103   24.5216 H   0  0  0  0  0  0  0  0  0  0  0  0
  -12.2739  -26.3552   24.1910 H   0  0  0  0  0  0  0  0  0  0  0  0
  -11.0327  -27.4866   21.2065 H   0  0  0  0  0  0  0  0  0  0  0  0
  -10.2402  -26.2284   20.8059 H   0  0  0  0  0  0  0  0  0  0  0  0
  -13.1737  -26.8643   18.2744 H   0  0  0  0  0  0  0  0  0  0  0  0
  -14.4801  -26.6378   16.4643 H   0  0  0  0  0  0  0  0  0  0  0  0
  -15.3270  -24.3776   15.7635 H   0  0  0  0  0  0  0  0  0  0  0  0
  -13.1798  -22.5882   18.7712 H   0  0  0  0  0  0  0  0  0  0  0  0
  1  2  1  0
  2  3  1  0
  3  4  1  0
  4  5  2  0
  4  6  1  0
  6  7  2  0
  7  8  1  0
  8  9  1  0
  9 10  2  0
 10 11  1  0
 11 12  1  0
 12 13  1  0
 13 14  1  0
 14 15  2  0
 15 16  1  0
 16 17  2  0
 17 18  1  0
 18 19  2  0
 10  6  1  0
 19 14  1  0
 13  9  1  0
  1 20  1  0
  1 21  1  0
  1 22  1  0
  2 23  1  0
  2 24  1  0
 11 25  1  0
 11 26  1  0
 12 27  1  0
 12 28  1  0
 15 29  1  0
 16 30  1  0
 17 31  1  0
 19 32  1  0
M  END
>  <Energy>  (799) 
812.19283710112938

>  <compound_id>  (799) 
87556

>  <target_id>  (799) 
1

>  <reference_id>  (799) 
123

>  <inspiration_ids>  (799) 
[123, 48]

>  <energy_score>  (799) 
695.4727174016601

>  <distance_score>  (799) 
8.468581944912884

>  <path>  (799) 
/opt/xchem-fragalysis-2/maxwin/BulkDock/SCRATCH/511017/C87556-P123/C87556-P123.minimised.mol

>  <scratch_subdir>  (799) 
/opt/xchem-fragalysis-2/maxwin/BulkDock/SCRATCH/511017/C87556-P123

>  <fragmenstein_runtime>  (799) 
9.838938474655151

>  <fragmenstein_outcome>  (799) 
too moved

>  <fragmenstein_mode>  (799) 
expansion

>  <fragmenstein_error>  (799) 


$$$$
C87556-P48
     RDKit          3D

 32 34  0  0  0  0  0  0  0  0999 V2000
  -12.5874  -26.3106   29.5609 C   0  0  0  0  0  0  0  0  0  0  0  0
  -13.8161  -27.1238   29.1788 C   0  0  0  0  0  0  0  0  0  0  0  0
  -14.3194  -26.6905   27.9031 O   0  0  0  0  0  0  0  0  0  0  0  0
  -13.6149  -27.1323   26.8259 C   0  0  0  0  0  0  0  0  0  0  0  0
  -12.7011  -27.9496   26.8619 O   0  0  0  0  0  0  0  0  0  0  0  0
  -13.9801  -26.4525   25.5969 C   0  0  0  0  0  0  0  0  0  0  0  0
  -15.1935  -26.4852   25.0226 N   0  0  0  0  0  0  0  0  0  0  0  0
  -15.0672  -26.2298   23.6376 O   0  0  0  0  0  0  0  0  0  0  0  0
  -13.8175  -25.7032   23.3197 C   0  0  0  0  0  0  0  0  0  0  0  0
  -13.0702  -25.8380   24.7501 C   0  0  0  0  0  0  0  0  0  0  0  0
  -11.1354  -26.2243   24.4406 C   0  0  0  0  0  0  0  0  0  0  0  0
  -10.7867  -26.2371   22.1698 C   0  0  0  0  0  0  0  0  0  0  0  0
  -12.8767  -25.5760   21.6984 N   0  0  0  0  0  0  0  0  0  0  0  0
  -13.6241  -26.0122   20.0639 C   0  0  0  0  0  0  0  0  0  0  0  0
  -13.6765  -27.2258   19.3040 C   0  0  0  0  0  0  0  0  0  0  0  0
  -14.0898  -27.2906   17.9476 C   0  0  0  0  0  0  0  0  0  0  0  0
  -14.3107  -26.1187   17.2739 C   0  0  0  0  0  0  0  0  0  0  0  0
  -14.0278  -24.9518   17.8493 N   0  0  0  0  0  0  0  0  0  0  0  0
  -13.6082  -25.0019   19.1631 C   0  0  0  0  0  0  0  0  0  0  0  0
  -11.7652  -26.4690   28.8563 H   0  0  0  0  0  0  0  0  0  0  0  0
  -12.2416  -26.5854   30.5615 H   0  0  0  0  0  0  0  0  0  0  0  0
  -12.8142  -25.2407   29.5491 H   0  0  0  0  0  0  0  0  0  0  0  0
  -13.6041  -28.1990   29.1698 H   0  0  0  0  0  0  0  0  0  0  0  0
  -14.6123  -26.9540   29.9107 H   0  0  0  0  0  0  0  0  0  0  0  0
  -10.6823  -25.4415   25.1327 H   0  0  0  0  0  0  0  0  0  0  0  0
  -10.9928  -27.2368   24.9026 H   0  0  0  0  0  0  0  0  0  0  0  0
  -10.5211  -27.3287   22.1651 H   0  0  0  0  0  0  0  0  0  0  0  0
  -10.2084  -25.7840   21.3151 H   0  0  0  0  0  0  0  0  0  0  0  0
  -13.2722  -28.1677   19.6210 H   0  0  0  0  0  0  0  0  0  0  0  0
  -14.1670  -28.2439   17.4364 H   0  0  0  0  0  0  0  0  0  0  0  0
  -14.6382  -26.0871   16.2418 H   0  0  0  0  0  0  0  0  0  0  0  0
  -13.0774  -24.1696   19.5826 H   0  0  0  0  0  0  0  0  0  0  0  0
  1  2  1  0
  2  3  1  0
  3  4  1  0
  4  5  2  0
  4  6  1  0
  6  7  2  0
  7  8  1  0
  8  9  1  0
  9 10  2  0
 10 11  1  0
 11 12  1  0
 12 13  1  0
 13 14  1  0
 14 15  2  0
 15 16  1  0
 16 17  2  0
 17 18  1  0
 18 19  2  0
 10  6  1  0
 19 14  1  0
 13  9  1  0
  1 20  1  0
  1 21  1  0
  1 22  1  0
  2 23  1  0
  2 24  1  0
 11 25  1  0
 11 26  1  0
 12 27  1  0
 12 28  1  0
 15 29  1  0
 16 30  1  0
 17 31  1  0
 19 32  1  0
M  END
>  <Energy>  (800) 
724.92294829349555

>  <compound_id>  (800) 
87556

>  <target_id>  (800) 
1

>  <reference_id>  (800) 
48

>  <inspiration_ids>  (800) 
[123, 48]

>  <energy_score>  (800) 
608.2028285940253

>  <distance_score>  (800) 
8.452772951166912

>  <path>  (800) 
/opt/xchem-fragalysis-2/maxwin/BulkDock/SCRATCH/511017/C87556-P48/C87556-P48.minimised.mol

>  <scratch_subdir>  (800) 
/opt/xchem-fragalysis-2/maxwin/BulkDock/SCRATCH/511017/C87556-P48

>  <fragmenstein_runtime>  (800) 
4.726224660873413

>  <fragmenstein_outcome>  (800) 
too moved

>  <fragmenstein_mode>  (800) 
expansion

>  <fragmenstein_error>  (800) 


$$$$
C87560-P123
     RDKit          3D

 40 42  0  0  0  0  0  0  0  0999 V2000
  -11.8438  -26.9793   24.0382 C   0  0  0  0  0  0  0  0  0  0  0  0
  -11.4258  -27.8075   22.2780 C   0  0  0  0  0  0  0  0  0  0  0  0
  -12.9298  -28.6799   22.1089 O   0  0  0  0  0  0  0  0  0  0  0  0
  -14.2992  -28.8250   22.4540 C   0  0  0  0  0  0  0  0  0  0  0  0
  -15.0329  -29.4566   21.6962 O   0  0  0  0  0  0  0  0  0  0  0  0
  -14.9351  -28.3164   23.7204 C   0  0  0  0  0  0  0  0  0  0  0  0
  -15.2818  -29.2284   24.7265 C   0  0  0  0  0  0  0  0  0  0  0  0
  -15.7523  -28.7791   25.9613 C   0  0  0  0  0  0  0  0  0  0  0  0
  -15.8886  -27.4165   26.1534 C   0  0  0  0  0  0  0  0  0  0  0  0
  -15.6581  -26.5078   25.1827 N   0  0  0  0  0  0  0  0  0  0  0  0
  -15.2481  -26.9851   23.9745 C   0  0  0  0  0  0  0  0  0  0  0  0
  -10.8497  -26.8531   20.5726 C   0  0  0  0  0  0  0  0  0  0  0  0
  -11.8220  -24.9733   19.9314 C   0  0  0  0  0  0  0  0  0  0  0  0
  -13.2282  -25.4459   18.5304 C   0  0  0  0  0  0  0  0  0  0  0  0
  -12.7954  -26.0266   17.1103 C   0  0  0  0  0  0  0  0  0  0  0  0
  -11.7850  -27.1217   17.3087 C   0  0  0  0  0  0  0  0  0  0  0  0
  -11.6769  -27.9691   18.9392 C   0  0  0  0  0  0  0  0  0  0  0  0
  -13.4838  -28.1069   18.5777 C   0  0  0  0  0  0  0  0  0  0  0  0
  -14.2424  -26.7146   18.7561 C   0  0  0  0  0  0  0  0  0  0  0  0
  -11.1047  -27.3950   24.7803 H   0  0  0  0  0  0  0  0  0  0  0  0
  -12.8729  -27.0638   24.3667 H   0  0  0  0  0  0  0  0  0  0  0  0
  -11.5160  -25.9677   24.3263 H   0  0  0  0  0  0  0  0  0  0  0  0
  -10.5559  -28.4655   22.3808 H   0  0  0  0  0  0  0  0  0  0  0  0
  -15.1381  -30.2945   24.5610 H   0  0  0  0  0  0  0  0  0  0  0  0
  -15.9885  -29.4801   26.7542 H   0  0  0  0  0  0  0  0  0  0  0  0
  -16.2295  -27.0118   27.1006 H   0  0  0  0  0  0  0  0  0  0  0  0
  -15.1593  -26.2168   23.2120 H   0  0  0  0  0  0  0  0  0  0  0  0
  -10.1056  -26.1237   20.5887 H   0  0  0  0  0  0  0  0  0  0  0  0
  -12.8768  -24.8360   20.2911 H   0  0  0  0  0  0  0  0  0  0  0  0
  -11.5921  -24.0106   20.3571 H   0  0  0  0  0  0  0  0  0  0  0  0
  -13.7936  -24.5198   18.3854 H   0  0  0  0  0  0  0  0  0  0  0  0
  -13.6631  -26.3995   16.5453 H   0  0  0  0  0  0  0  0  0  0  0  0
  -12.4002  -25.3267   16.3740 H   0  0  0  0  0  0  0  0  0  0  0  0
  -11.9572  -27.9184   16.5634 H   0  0  0  0  0  0  0  0  0  0  0  0
  -10.8685  -26.6469   16.9457 H   0  0  0  0  0  0  0  0  0  0  0  0
  -11.6949  -29.0620   19.0954 H   0  0  0  0  0  0  0  0  0  0  0  0
  -13.9489  -28.9142   19.1672 H   0  0  0  0  0  0  0  0  0  0  0  0
  -13.6183  -28.5011   17.5602 H   0  0  0  0  0  0  0  0  0  0  0  0
  -14.7350  -26.6639   19.7306 H   0  0  0  0  0  0  0  0  0  0  0  0
  -15.0655  -26.6947   18.0278 H   0  0  0  0  0  0  0  0  0  0  0  0
  1  2  1  0
  2  3  1  0
  3  4  1  0
  4  5  2  0
  4  6  1  0
  6  7  2  0
  7  8  1  0
  8  9  2  0
  9 10  1  0
 10 11  2  0
  2 12  1  0
 12 13  1  0
 13 14  1  0
 14 15  1  0
 15 16  1  0
 16 17  1  0
 17 18  1  0
 18 19  1  0
 11  6  1  0
 17 12  1  0
 19 14  1  0
  1 20  1  0
  1 21  1  0
  1 22  1  0
  2 23  1  0
  7 24  1  0
  8 25  1  0
  9 26  1  0
 11 27  1  0
 12 28  1  0
 13 29  1  0
 13 30  1  0
 14 31  1  0
 15 32  1  0
 15 33  1  0
 16 34  1  0
 16 35  1  0
 17 36  1  0
 18 37  1  0
 18 38  1  0
 19 39  1  0
 19 40  1  0
M  END
>  <Energy>  (801) 
669.40464720523289

>  <compound_id>  (801) 
87560

>  <target_id>  (801) 
1

>  <reference_id>  (801) 
123

>  <inspiration_ids>  (801) 
[123, 48]

>  <energy_score>  (801) 
576.8174985923941

>  <distance_score>  (801) 
9.016806903693947

>  <path>  (801) 
/opt/xchem-fragalysis-2/maxwin/BulkDock/SCRATCH/511017/C87560-P123/C87560-P123.minimised.mol

>  <scratch_subdir>  (801) 
/opt/xchem-fragalysis-2/maxwin/BulkDock/SCRATCH/511017/C87560-P123

>  <fragmenstein_runtime>  (801) 
23.224501848220825

>  <fragmenstein_outcome>  (801) 
too moved

>  <fragmenstein_mode>  (801) 
expansion

>  <fragmenstein_error>  (801) 


$$$$
C87560-P48
     RDKit          3D

 40 42  0  0  0  0  0  0  0  0999 V2000
  -13.6334  -27.1975   19.6027 C   0  0  0  0  0  0  0  0  0  0  0  0
  -12.1015  -28.0126   19.5319 C   0  0  0  0  0  0  0  0  0  0  0  0
  -10.7269  -27.7544   20.9478 O   0  0  0  0  0  0  0  0  0  0  0  0
  -10.1902  -27.3691   22.5683 C   0  0  0  0  0  0  0  0  0  0  0  0
   -8.9622  -27.3557   22.5805 O   0  0  0  0  0  0  0  0  0  0  0  0
  -10.9013  -27.1425   24.5411 C   0  0  0  0  0  0  0  0  0  0  0  0
  -10.7384  -25.9231   25.5224 C   0  0  0  0  0  0  0  0  0  0  0  0
  -11.4297  -25.5863   26.7309 C   0  0  0  0  0  0  0  0  0  0  0  0
  -12.4345  -26.4147   27.1137 C   0  0  0  0  0  0  0  0  0  0  0  0
  -12.6684  -27.5099   26.3970 N   0  0  0  0  0  0  0  0  0  0  0  0
  -11.6529  -27.8484   25.4898 C   0  0  0  0  0  0  0  0  0  0  0  0
  -12.5628  -29.3255   18.6814 C   0  0  0  0  0  0  0  0  0  0  0  0
  -12.0426  -30.7650   18.5958 C   0  0  0  0  0  0  0  0  0  0  0  0
  -12.3119  -31.3464   17.1579 C   0  0  0  0  0  0  0  0  0  0  0  0
  -13.8166  -31.2148   16.8318 C   0  0  0  0  0  0  0  0  0  0  0  0
  -14.2145  -29.7377   16.7613 C   0  0  0  0  0  0  0  0  0  0  0  0
  -13.0079  -28.8722   17.1746 C   0  0  0  0  0  0  0  0  0  0  0  0
  -11.9342  -29.0996   16.0931 C   0  0  0  0  0  0  0  0  0  0  0  0
  -11.5555  -30.5814   16.0505 C   0  0  0  0  0  0  0  0  0  0  0  0
  -14.1933  -27.3705   20.5149 H   0  0  0  0  0  0  0  0  0  0  0  0
  -14.3117  -27.5288   18.8136 H   0  0  0  0  0  0  0  0  0  0  0  0
  -13.5161  -26.1197   19.4243 H   0  0  0  0  0  0  0  0  0  0  0  0
  -11.6842  -27.3238   18.7530 H   0  0  0  0  0  0  0  0  0  0  0  0
  -10.0208  -25.1086   25.3383 H   0  0  0  0  0  0  0  0  0  0  0  0
  -11.1852  -24.6845   27.2847 H   0  0  0  0  0  0  0  0  0  0  0  0
  -13.0476  -26.2413   27.9876 H   0  0  0  0  0  0  0  0  0  0  0  0
  -10.8777  -28.1978   26.2348 H   0  0  0  0  0  0  0  0  0  0  0  0
  -13.5249  -29.5235   19.1853 H   0  0  0  0  0  0  0  0  0  0  0  0
  -11.0146  -30.9033   18.9031 H   0  0  0  0  0  0  0  0  0  0  0  0
  -12.6041  -31.3817   19.3131 H   0  0  0  0  0  0  0  0  0  0  0  0
  -12.0236  -32.4035   17.1411 H   0  0  0  0  0  0  0  0  0  0  0  0
  -14.4112  -31.7251   17.5991 H   0  0  0  0  0  0  0  0  0  0  0  0
  -14.0475  -31.7083   15.8801 H   0  0  0  0  0  0  0  0  0  0  0  0
  -15.0708  -29.5486   17.4191 H   0  0  0  0  0  0  0  0  0  0  0  0
  -14.5430  -29.4840   15.7460 H   0  0  0  0  0  0  0  0  0  0  0  0
  -13.2904  -27.8173   17.1261 H   0  0  0  0  0  0  0  0  0  0  0  0
  -12.3251  -28.8012   15.1114 H   0  0  0  0  0  0  0  0  0  0  0  0
  -11.0669  -28.4540   16.2586 H   0  0  0  0  0  0  0  0  0  0  0  0
  -11.8179  -30.9970   15.0690 H   0  0  0  0  0  0  0  0  0  0  0  0
  -10.4744  -30.7218   16.1455 H   0  0  0  0  0  0  0  0  0  0  0  0
  1  2  1  0
  2  3  1  0
  3  4  1  0
  4  5  2  0
  4  6  1  0
  6  7  2  0
  7  8  1  0
  8  9  2  0
  9 10  1  0
 10 11  2  0
  2 12  1  0
 12 13  1  0
 13 14  1  0
 14 15  1  0
 15 16  1  0
 16 17  1  0
 17 18  1  0
 18 19  1  0
 11  6  1  0
 17 12  1  0
 19 14  1  0
  1 20  1  0
  1 21  1  0
  1 22  1  0
  2 23  1  0
  7 24  1  0
  8 25  1  0
  9 26  1  0
 11 27  1  0
 12 28  1  0
 13 29  1  0
 13 30  1  0
 14 31  1  0
 15 32  1  0
 15 33  1  0
 16 34  1  0
 16 35  1  0
 17 36  1  0
 18 37  1  0
 18 38  1  0
 19 39  1  0
 19 40  1  0
M  END
>  <Energy>  (802) 
525.71341820271323

>  <compound_id>  (802) 
87560

>  <target_id>  (802) 
1

>  <reference_id>  (802) 
48

>  <inspiration_ids>  (802) 
[123, 48]

>  <energy_score>  (802) 
433.1262695898714

>  <distance_score>  (802) 
8.691164634583311

>  <path>  (802) 
/opt/xchem-fragalysis-2/maxwin/BulkDock/SCRATCH/511017/C87560-P48/C87560-P48.minimised.mol

>  <scratch_subdir>  (802) 
/opt/xchem-fragalysis-2/maxwin/BulkDock/SCRATCH/511017/C87560-P48

>  <fragmenstein_runtime>  (802) 
11.302900791168213

>  <fragmenstein_outcome>  (802) 
too moved

>  <fragmenstein_mode>  (802) 
expansion

>  <fragmenstein_error>  (802) 


$$$$
C87561-P123
     RDKit          3D

 46 49  0  0  0  0  0  0  0  0999 V2000
  -13.5268  -24.6834   19.1620 C   0  0  0  0  0  0  0  0  0  0  0  0
  -14.2071  -25.9788   18.9490 C   0  0  0  0  0  0  0  0  0  0  0  0
  -14.6860  -26.0915   20.7569 O   0  0  0  0  0  0  0  0  0  0  0  0
  -15.6802  -26.2647   21.9317 C   0  0  0  0  0  0  0  0  0  0  0  0
  -16.9125  -26.3316   21.7906 O   0  0  0  0  0  0  0  0  0  0  0  0
  -15.2374  -26.2480   23.4126 C   0  0  0  0  0  0  0  0  0  0  0  0
  -16.1132  -25.9253   24.4378 C   0  0  0  0  0  0  0  0  0  0  0  0
  -15.4423  -25.8776   25.6156 O   0  0  0  0  0  0  0  0  0  0  0  0
  -14.1577  -26.2087   25.2924 C   0  0  0  0  0  0  0  0  0  0  0  0
  -13.1791  -26.0377   26.3571 C   0  0  0  0  0  0  0  0  0  0  0  0
  -11.8688  -26.5034   26.2981 C   0  0  0  0  0  0  0  0  0  0  0  0
  -11.0015  -26.2859   27.3748 C   0  0  0  0  0  0  0  0  0  0  0  0
  -11.4496  -25.5743   28.4704 C   0  0  0  0  0  0  0  0  0  0  0  0
  -12.6937  -25.0828   28.5452 N   0  0  0  0  0  0  0  0  0  0  0  0
  -13.5126  -25.3296   27.5010 C   0  0  0  0  0  0  0  0  0  0  0  0
  -14.0137  -26.5676   24.0251 N   0  0  0  0  0  0  0  0  0  0  0  0
  -13.6299  -26.9872   17.6682 C   0  0  0  0  0  0  0  0  0  0  0  0
  -14.7171  -27.9681   17.0667 C   0  0  0  0  0  0  0  0  0  0  0  0
  -14.9384  -27.8109   15.5466 C   0  0  0  0  0  0  0  0  0  0  0  0
  -13.6404  -28.1476   14.8122 C   0  0  0  0  0  0  0  0  0  0  0  0
  -12.5174  -27.2856   15.3704 C   0  0  0  0  0  0  0  0  0  0  0  0
  -13.0774  -26.2554   16.3849 C   0  0  0  0  0  0  0  0  0  0  0  0
  -14.1762  -25.4441   15.6793 C   0  0  0  0  0  0  0  0  0  0  0  0
  -15.3240  -26.3569   15.2665 C   0  0  0  0  0  0  0  0  0  0  0  0
  -12.4977  -24.6759   19.4487 H   0  0  0  0  0  0  0  0  0  0  0  0
  -13.7466  -23.9824   18.3577 H   0  0  0  0  0  0  0  0  0  0  0  0
  -13.8007  -24.3725   20.1530 H   0  0  0  0  0  0  0  0  0  0  0  0
  -15.1895  -26.1217   18.4877 H   0  0  0  0  0  0  0  0  0  0  0  0
  -17.1626  -25.6657   24.4712 H   0  0  0  0  0  0  0  0  0  0  0  0
  -11.4995  -27.0309   25.4293 H   0  0  0  0  0  0  0  0  0  0  0  0
   -9.9853  -26.6588   27.3688 H   0  0  0  0  0  0  0  0  0  0  0  0
  -10.8118  -25.3769   29.3281 H   0  0  0  0  0  0  0  0  0  0  0  0
  -14.5024  -24.9151   27.6261 H   0  0  0  0  0  0  0  0  0  0  0  0
  -12.8052  -27.6091   17.9952 H   0  0  0  0  0  0  0  0  0  0  0  0
  -14.3976  -29.0013   17.2536 H   0  0  0  0  0  0  0  0  0  0  0  0
  -15.6942  -27.8392   17.5437 H   0  0  0  0  0  0  0  0  0  0  0  0
  -15.7393  -28.4812   15.2151 H   0  0  0  0  0  0  0  0  0  0  0  0
  -13.3930  -29.2085   14.9362 H   0  0  0  0  0  0  0  0  0  0  0  0
  -13.7539  -27.9743   13.7355 H   0  0  0  0  0  0  0  0  0  0  0  0
  -12.0074  -26.7669   14.5492 H   0  0  0  0  0  0  0  0  0  0  0  0
  -11.7618  -27.9163   15.8543 H   0  0  0  0  0  0  0  0  0  0  0  0
  -12.2191  -25.6484   16.6157 H   0  0  0  0  0  0  0  0  0  0  0  0
  -13.7752  -24.9806   14.7705 H   0  0  0  0  0  0  0  0  0  0  0  0
  -14.5528  -24.6360   16.3132 H   0  0  0  0  0  0  0  0  0  0  0  0
  -16.2314  -26.0922   15.8229 H   0  0  0  0  0  0  0  0  0  0  0  0
  -15.5557  -26.2160   14.2042 H   0  0  0  0  0  0  0  0  0  0  0  0
  1  2  1  0
  2  3  1  0
  3  4  1  0
  4  5  2  0
  4  6  1  0
  6  7  2  0
  7  8  1  0
  8  9  1  0
  9 10  1  0
 10 11  2  0
 11 12  1  0
 12 13  2  0
 13 14  1  0
 14 15  2  0
  9 16  2  0
  2 17  1  0
 17 18  1  0
 18 19  1  0
 19 20  1  0
 20 21  1  0
 21 22  1  0
 22 23  1  0
 23 24  1  0
 16  6  1  0
 22 17  1  0
 15 10  1  0
 24 19  1  0
  1 25  1  0
  1 26  1  0
  1 27  1  0
  2 28  1  0
  7 29  1  0
 11 30  1  0
 12 31  1  0
 13 32  1  0
 15 33  1  0
 17 34  1  0
 18 35  1  0
 18 36  1  0
 19 37  1  0
 20 38  1  0
 20 39  1  0
 21 40  1  0
 21 41  1  0
 22 42  1  0
 23 43  1  0
 23 44  1  0
 24 45  1  0
 24 46  1  0
M  END
>  <Energy>  (803) 
248.2271332280659

>  <compound_id>  (803) 
87561

>  <target_id>  (803) 
1

>  <reference_id>  (803) 
123

>  <inspiration_ids>  (803) 
[123, 48]

>  <energy_score>  (803) 
112.80051837065594

>  <distance_score>  (803) 
7.958443338856591

>  <path>  (803) 
/opt/xchem-fragalysis-2/maxwin/BulkDock/SCRATCH/511017/C87561-P123/C87561-P123.minimised.mol

>  <scratch_subdir>  (803) 
/opt/xchem-fragalysis-2/maxwin/BulkDock/SCRATCH/511017/C87561-P123

>  <fragmenstein_runtime>  (803) 
20.915229320526123

>  <fragmenstein_outcome>  (803) 
too moved

>  <fragmenstein_mode>  (803) 
expansion

>  <fragmenstein_error>  (803) 


$$$$
C87561-P48
     RDKit          3D

 46 49  0  0  0  0  0  0  0  0999 V2000
   -5.5567  -26.0790   18.5185 C   0  0  0  0  0  0  0  0  0  0  0  0
   -6.7234  -24.6706   18.3031 C   0  0  0  0  0  0  0  0  0  0  0  0
   -6.4796  -24.3736   19.7344 O   0  0  0  0  0  0  0  0  0  0  0  0
   -5.1275  -24.0289   20.1798 C   0  0  0  0  0  0  0  0  0  0  0  0
   -4.1979  -23.7934   19.4107 O   0  0  0  0  0  0  0  0  0  0  0  0
   -4.9030  -23.8563   21.6360 C   0  0  0  0  0  0  0  0  0  0  0  0
   -4.3607  -24.8126   22.4715 C   0  0  0  0  0  0  0  0  0  0  0  0
   -4.0432  -24.2374   23.6621 O   0  0  0  0  0  0  0  0  0  0  0  0
   -4.3555  -22.9153   23.4877 C   0  0  0  0  0  0  0  0  0  0  0  0
   -3.8853  -22.0029   24.5185 C   0  0  0  0  0  0  0  0  0  0  0  0
   -3.4399  -22.4312   25.7736 C   0  0  0  0  0  0  0  0  0  0  0  0
   -3.0115  -21.4991   26.7183 C   0  0  0  0  0  0  0  0  0  0  0  0
   -3.0325  -20.1578   26.3752 C   0  0  0  0  0  0  0  0  0  0  0  0
   -3.4392  -19.7020   25.1723 N   0  0  0  0  0  0  0  0  0  0  0  0
   -3.8427  -20.6341   24.2717 C   0  0  0  0  0  0  0  0  0  0  0  0
   -4.9511  -22.6499   22.3386 N   0  0  0  0  0  0  0  0  0  0  0  0
   -8.2538  -25.0469   16.8127 C   0  0  0  0  0  0  0  0  0  0  0  0
   -7.6355  -26.7039   15.9283 C   0  0  0  0  0  0  0  0  0  0  0  0
   -8.3899  -27.2697   14.6069 C   0  0  0  0  0  0  0  0  0  0  0  0
   -9.2359  -26.2828   13.7590 C   0  0  0  0  0  0  0  0  0  0  0  0
  -10.0744  -25.4357   14.6974 C   0  0  0  0  0  0  0  0  0  0  0  0
   -9.8666  -25.9786   16.1588 C   0  0  0  0  0  0  0  0  0  0  0  0
  -10.2710  -27.4631   16.0616 C   0  0  0  0  0  0  0  0  0  0  0  0
   -9.4014  -28.2713   15.1240 C   0  0  0  0  0  0  0  0  0  0  0  0
   -5.6215  -26.5427   19.5012 H   0  0  0  0  0  0  0  0  0  0  0  0
   -5.6960  -26.8955   17.7959 H   0  0  0  0  0  0  0  0  0  0  0  0
   -4.5168  -25.7557   18.3936 H   0  0  0  0  0  0  0  0  0  0  0  0
   -6.3708  -23.6479   18.2764 H   0  0  0  0  0  0  0  0  0  0  0  0
   -4.0998  -25.8533   22.3482 H   0  0  0  0  0  0  0  0  0  0  0  0
   -3.4181  -23.4888   26.0245 H   0  0  0  0  0  0  0  0  0  0  0  0
   -2.6640  -21.8124   27.6968 H   0  0  0  0  0  0  0  0  0  0  0  0
   -2.7091  -19.3936   27.0766 H   0  0  0  0  0  0  0  0  0  0  0  0
   -4.1525  -20.2285   23.3102 H   0  0  0  0  0  0  0  0  0  0  0  0
   -8.4941  -24.0869   16.2262 H   0  0  0  0  0  0  0  0  0  0  0  0
   -7.6737  -27.5365   16.6437 H   0  0  0  0  0  0  0  0  0  0  0  0
   -6.5542  -26.6693   15.7430 H   0  0  0  0  0  0  0  0  0  0  0  0
   -7.6674  -27.7948   13.9711 H   0  0  0  0  0  0  0  0  0  0  0  0
   -8.6565  -25.6635   13.0710 H   0  0  0  0  0  0  0  0  0  0  0  0
   -9.8996  -26.8438   13.0861 H   0  0  0  0  0  0  0  0  0  0  0  0
  -11.1323  -25.5143   14.4138 H   0  0  0  0  0  0  0  0  0  0  0  0
   -9.8336  -24.3719   14.6152 H   0  0  0  0  0  0  0  0  0  0  0  0
  -10.8065  -25.6844   16.6694 H   0  0  0  0  0  0  0  0  0  0  0  0
  -10.4847  -27.8596   17.0431 H   0  0  0  0  0  0  0  0  0  0  0  0
  -11.2816  -27.5023   15.6190 H   0  0  0  0  0  0  0  0  0  0  0  0
  -10.0004  -28.7038   14.3125 H   0  0  0  0  0  0  0  0  0  0  0  0
   -8.9043  -29.1255   15.5881 H   0  0  0  0  0  0  0  0  0  0  0  0
  1  2  1  0
  2  3  1  0
  3  4  1  0
  4  5  2  0
  4  6  1  0
  6  7  2  0
  7  8  1  0
  8  9  1  0
  9 10  1  0
 10 11  2  0
 11 12  1  0
 12 13  2  0
 13 14  1  0
 14 15  2  0
  9 16  2  0
  2 17  1  0
 17 18  1  0
 18 19  1  0
 19 20  1  0
 20 21  1  0
 21 22  1  0
 22 23  1  0
 23 24  1  0
 16  6  1  0
 22 17  1  0
 15 10  1  0
 24 19  1  0
  1 25  1  0
  1 26  1  0
  1 27  1  0
  2 28  1  0
  7 29  1  0
 11 30  1  0
 12 31  1  0
 13 32  1  0
 15 33  1  0
 17 34  1  0
 18 35  1  0
 18 36  1  0
 19 37  1  0
 20 38  1  0
 20 39  1  0
 21 40  1  0
 21 41  1  0
 22 42  1  0
 23 43  1  0
 23 44  1  0
 24 45  1  0
 24 46  1  0
M  END
>  <Energy>  (804) 
477.74481688042653

>  <compound_id>  (804) 
87561

>  <target_id>  (804) 
1

>  <reference_id>  (804) 
48

>  <inspiration_ids>  (804) 
[123, 48]

>  <energy_score>  (804) 
342.31820202301094

>  <distance_score>  (804) 
9.502560681071662

>  <path>  (804) 
/opt/xchem-fragalysis-2/maxwin/BulkDock/SCRATCH/511017/C87561-P48/C87561-P48.minimised.mol

>  <scratch_subdir>  (804) 
/opt/xchem-fragalysis-2/maxwin/BulkDock/SCRATCH/511017/C87561-P48

>  <fragmenstein_runtime>  (804) 
12.89136552810669

>  <fragmenstein_outcome>  (804) 
too moved

>  <fragmenstein_mode>  (804) 
expansion

>  <fragmenstein_error>  (804) 


$$$$
C87565-P123
     RDKit          3D

 38 40  0  0  0  0  0  0  0  0999 V2000
  -11.9760  -23.2424   28.0727 C   0  0  0  0  0  0  0  0  0  0  0  0
  -10.9434  -24.3333   27.9154 C   0  0  0  0  0  0  0  0  0  0  0  0
  -11.1338  -24.9434   26.6296 O   0  0  0  0  0  0  0  0  0  0  0  0
  -10.6311  -26.2131   26.5434 C   0  0  0  0  0  0  0  0  0  0  0  0
   -9.9329  -26.7492   27.3862 O   0  0  0  0  0  0  0  0  0  0  0  0
  -11.2935  -27.0358   24.9949 C   0  0  0  0  0  0  0  0  0  0  0  0
  -12.4817  -27.7296   26.2558 C   0  0  0  0  0  0  0  0  0  0  0  0
  -12.7092  -28.5574   27.3636 C   0  0  0  0  0  0  0  0  0  0  0  0
  -13.9815  -28.2059   27.8091 C   0  0  0  0  0  0  0  0  0  0  0  0
  -14.5050  -27.1673   27.0706 O   0  0  0  0  0  0  0  0  0  0  0  0
  -13.5772  -26.9734   26.1434 C   0  0  0  0  0  0  0  0  0  0  0  0
  -13.3786  -26.0558   25.0669 C   0  0  0  0  0  0  0  0  0  0  0  0
  -11.5845  -26.6364   24.5357 C   0  0  0  0  0  0  0  0  0  0  0  0
  -11.1481  -27.9469   23.2202 N   0  0  0  0  0  0  0  0  0  0  0  0
  -10.7580  -27.4216   21.3318 C   0  0  0  0  0  0  0  0  0  0  0  0
  -10.6288  -26.3768   20.8503 O   0  0  0  0  0  0  0  0  0  0  0  0
  -10.5581  -28.8059   19.8515 C   0  0  0  0  0  0  0  0  0  0  0  0
  -10.8769  -28.4983   18.4707 C   0  0  0  0  0  0  0  0  0  0  0  0
  -10.5482  -29.2809   17.3492 C   0  0  0  0  0  0  0  0  0  0  0  0
   -9.8246  -30.4214   17.5587 C   0  0  0  0  0  0  0  0  0  0  0  0
   -9.4114  -30.7983   18.7787 N   0  0  0  0  0  0  0  0  0  0  0  0
   -9.7297  -29.9783   19.8422 C   0  0  0  0  0  0  0  0  0  0  0  0
  -12.9847  -23.6628   28.0201 H   0  0  0  0  0  0  0  0  0  0  0  0
  -11.8848  -22.5127   27.2641 H   0  0  0  0  0  0  0  0  0  0  0  0
  -11.8595  -22.7249   29.0291 H   0  0  0  0  0  0  0  0  0  0  0  0
   -9.9419  -23.9011   27.9608 H   0  0  0  0  0  0  0  0  0  0  0  0
  -11.0660  -25.0624   28.7246 H   0  0  0  0  0  0  0  0  0  0  0  0
  -10.4476  -27.8822   25.2991 H   0  0  0  0  0  0  0  0  0  0  0  0
  -12.1034  -29.3313   27.8006 H   0  0  0  0  0  0  0  0  0  0  0  0
  -14.6217  -28.5814   28.5943 H   0  0  0  0  0  0  0  0  0  0  0  0
  -14.1129  -26.1801   24.2637 H   0  0  0  0  0  0  0  0  0  0  0  0
  -13.2961  -25.0122   25.3858 H   0  0  0  0  0  0  0  0  0  0  0  0
  -12.3497  -26.6351   23.7042 H   0  0  0  0  0  0  0  0  0  0  0  0
  -11.0924  -25.4615   24.3325 H   0  0  0  0  0  0  0  0  0  0  0  0
  -11.4484  -27.6285   18.1893 H   0  0  0  0  0  0  0  0  0  0  0  0
  -10.8448  -28.9788   16.3520 H   0  0  0  0  0  0  0  0  0  0  0  0
   -9.5333  -31.0719   16.7412 H   0  0  0  0  0  0  0  0  0  0  0  0
   -9.2273  -30.2952   20.7565 H   0  0  0  0  0  0  0  0  0  0  0  0
  1  2  1  0
  2  3  1  0
  3  4  1  0
  4  5  2  0
  4  6  1  0
  6  7  1  0
  7  8  1  0
  8  9  2  0
  9 10  1  0
 10 11  1  0
 11 12  1  0
 12 13  1  0
 13 14  1  0
 14 15  1  0
 15 16  2  0
 15 17  1  0
 17 18  2  0
 18 19  1  0
 19 20  2  0
 20 21  1  0
 21 22  2  0
 14  6  1  0
 22 17  1  0
 11  7  2  0
  1 23  1  0
  1 24  1  0
  1 25  1  0
  2 26  1  0
  2 27  1  0
  6 28  1  0
  8 29  1  0
  9 30  1  0
 12 31  1  0
 12 32  1  0
 13 33  1  0
 13 34  1  0
 18 35  1  0
 19 36  1  0
 20 37  1  0
 22 38  1  0
M  END
>  <Energy>  (805) 
1156.3566391091115

>  <compound_id>  (805) 
87565

>  <target_id>  (805) 
1

>  <reference_id>  (805) 
123

>  <inspiration_ids>  (805) 
[123, 48]

>  <energy_score>  (805) 
1013.613898079357

>  <distance_score>  (805) 
8.19692584012748

>  <path>  (805) 
/opt/xchem-fragalysis-2/maxwin/BulkDock/SCRATCH/511017/C87565-P123/C87565-P123.minimised.mol

>  <scratch_subdir>  (805) 
/opt/xchem-fragalysis-2/maxwin/BulkDock/SCRATCH/511017/C87565-P123

>  <fragmenstein_runtime>  (805) 
9.267231464385986

>  <fragmenstein_outcome>  (805) 
too moved

>  <fragmenstein_mode>  (805) 
expansion

>  <fragmenstein_error>  (805) 


$$$$
C87565-P48
     RDKit          3D

 38 40  0  0  0  0  0  0  0  0999 V2000
   -8.3620  -21.5560   22.1133 C   0  0  0  0  0  0  0  0  0  0  0  0
   -9.8805  -21.6767   21.9472 C   0  0  0  0  0  0  0  0  0  0  0  0
  -10.5901  -22.2863   23.0304 O   0  0  0  0  0  0  0  0  0  0  0  0
  -11.3665  -21.4277   23.6297 C   0  0  0  0  0  0  0  0  0  0  0  0
  -10.9971  -20.2898   23.7892 O   0  0  0  0  0  0  0  0  0  0  0  0
  -12.7530  -22.0262   24.2202 C   0  0  0  0  0  0  0  0  0  0  0  0
  -12.3567  -22.8868   25.7342 C   0  0  0  0  0  0  0  0  0  0  0  0
  -11.7724  -22.8387   27.0154 C   0  0  0  0  0  0  0  0  0  0  0  0
  -11.9958  -24.0892   27.5834 C   0  0  0  0  0  0  0  0  0  0  0  0
  -12.9139  -24.7913   26.8335 O   0  0  0  0  0  0  0  0  0  0  0  0
  -13.1534  -23.9603   25.8191 C   0  0  0  0  0  0  0  0  0  0  0  0
  -14.1194  -23.9340   24.7570 C   0  0  0  0  0  0  0  0  0  0  0  0
  -13.3855  -22.4396   23.8255 C   0  0  0  0  0  0  0  0  0  0  0  0
  -13.4435  -23.1603   22.7308 N   0  0  0  0  0  0  0  0  0  0  0  0
  -12.7518  -23.0474   21.0318 C   0  0  0  0  0  0  0  0  0  0  0  0
  -11.9950  -22.3235   20.5690 O   0  0  0  0  0  0  0  0  0  0  0  0
  -13.2662  -24.5060   19.7290 C   0  0  0  0  0  0  0  0  0  0  0  0
  -12.6168  -25.5938   19.2906 C   0  0  0  0  0  0  0  0  0  0  0  0
  -12.7110  -26.7031   18.2963 C   0  0  0  0  0  0  0  0  0  0  0  0
  -13.7009  -26.6558   17.3890 C   0  0  0  0  0  0  0  0  0  0  0  0
  -14.4261  -25.5673   17.4106 N   0  0  0  0  0  0  0  0  0  0  0  0
  -14.1335  -24.6283   18.4493 C   0  0  0  0  0  0  0  0  0  0  0  0
   -7.9430  -22.4104   22.6469 H   0  0  0  0  0  0  0  0  0  0  0  0
   -7.9993  -20.6344   22.5612 H   0  0  0  0  0  0  0  0  0  0  0  0
   -7.8620  -21.4736   21.1497 H   0  0  0  0  0  0  0  0  0  0  0  0
  -10.5874  -20.9384   21.6074 H   0  0  0  0  0  0  0  0  0  0  0  0
   -9.9725  -22.2156   21.0187 H   0  0  0  0  0  0  0  0  0  0  0  0
  -13.0899  -20.8752   24.5210 H   0  0  0  0  0  0  0  0  0  0  0  0
  -11.2487  -22.0343   27.5073 H   0  0  0  0  0  0  0  0  0  0  0  0
  -11.7069  -24.5451   28.5203 H   0  0  0  0  0  0  0  0  0  0  0  0
  -14.1100  -24.8645   24.1882 H   0  0  0  0  0  0  0  0  0  0  0  0
  -15.1369  -23.7004   25.0898 H   0  0  0  0  0  0  0  0  0  0  0  0
  -14.5576  -22.1717   24.2041 H   0  0  0  0  0  0  0  0  0  0  0  0
  -14.0174  -21.6618   23.1733 H   0  0  0  0  0  0  0  0  0  0  0  0
  -11.6219  -25.3358   19.6769 H   0  0  0  0  0  0  0  0  0  0  0  0
  -11.9380  -27.4622   18.2607 H   0  0  0  0  0  0  0  0  0  0  0  0
  -13.8739  -27.3887   16.6165 H   0  0  0  0  0  0  0  0  0  0  0  0
  -14.7762  -23.8445   18.0867 H   0  0  0  0  0  0  0  0  0  0  0  0
  1  2  1  0
  2  3  1  0
  3  4  1  0
  4  5  2  0
  4  6  1  0
  6  7  1  0
  7  8  1  0
  8  9  2  0
  9 10  1  0
 10 11  1  0
 11 12  1  0
 12 13  1  0
 13 14  1  0
 14 15  1  0
 15 16  2  0
 15 17  1  0
 17 18  2  0
 18 19  1  0
 19 20  2  0
 20 21  1  0
 21 22  2  0
 14  6  1  0
 22 17  1  0
 11  7  2  0
  1 23  1  0
  1 24  1  0
  1 25  1  0
  2 26  1  0
  2 27  1  0
  6 28  1  0
  8 29  1  0
  9 30  1  0
 12 31  1  0
 12 32  1  0
 13 33  1  0
 13 34  1  0
 18 35  1  0
 19 36  1  0
 20 37  1  0
 22 38  1  0
M  END
>  <Energy>  (806) 
1126.7245471497283

>  <compound_id>  (806) 
87565

>  <target_id>  (806) 
1

>  <reference_id>  (806) 
48

>  <inspiration_ids>  (806) 
[123, 48]

>  <energy_score>  (806) 
983.9818061199666

>  <distance_score>  (806) 
8.2023442894851

>  <path>  (806) 
/opt/xchem-fragalysis-2/maxwin/BulkDock/SCRATCH/511017/C87565-P48/C87565-P48.minimised.mol

>  <scratch_subdir>  (806) 
/opt/xchem-fragalysis-2/maxwin/BulkDock/SCRATCH/511017/C87565-P48

>  <fragmenstein_runtime>  (806) 
7.232568025588989

>  <fragmenstein_outcome>  (806) 
too moved

>  <fragmenstein_mode>  (806) 
expansion

>  <fragmenstein_error>  (806) 


$$$$
C87573-P123
     RDKit          3D

 44 45  0  0  0  0  0  0  0  0999 V2000
  -11.9793  -22.4841   30.9986 C   0  0  0  0  0  0  0  0  0  0  0  0
  -11.8008  -23.9868   31.1025 C   0  0  0  0  0  0  0  0  0  0  0  0
  -11.7011  -24.6452   29.8300 O   0  0  0  0  0  0  0  0  0  0  0  0
  -12.5944  -24.3629   28.8436 C   0  0  0  0  0  0  0  0  0  0  0  0
  -13.6000  -23.7380   29.0027 O   0  0  0  0  0  0  0  0  0  0  0  0
  -12.0157  -24.8720   27.6783 N   0  0  0  0  0  0  0  0  0  0  0  0
  -12.3993  -24.7091   26.2487 C   0  0  0  0  0  0  0  0  0  0  0  0
  -11.2394  -25.1966   25.3790 C   0  0  0  0  0  0  0  0  0  0  0  0
  -11.4540  -26.7134   25.1087 C   0  0  0  0  0  0  0  0  0  0  0  0
  -10.5536  -27.7563   24.3690 N   0  0  0  0  0  0  0  0  0  0  0  0
  -10.0030  -28.2591   22.7163 C   0  0  0  0  0  0  0  0  0  0  0  0
  -10.7983  -27.3030   21.1546 C   0  0  0  0  0  0  0  0  0  0  0  0
  -10.5370  -26.9429   19.3807 O   0  0  0  0  0  0  0  0  0  0  0  0
  -11.5091  -26.9237   17.7947 C   0  0  0  0  0  0  0  0  0  0  0  0
  -12.9227  -26.9038   17.6187 C   0  0  0  0  0  0  0  0  0  0  0  0
  -13.5378  -26.8718   16.3453 C   0  0  0  0  0  0  0  0  0  0  0  0
  -12.7637  -26.8420   15.2095 C   0  0  0  0  0  0  0  0  0  0  0  0
  -11.4317  -26.8264   15.2621 N   0  0  0  0  0  0  0  0  0  0  0  0
  -10.8514  -26.8493   16.5113 C   0  0  0  0  0  0  0  0  0  0  0  0
  -11.5806  -27.1842   26.5801 C   0  0  0  0  0  0  0  0  0  0  0  0
  -12.5099  -26.2832   27.4233 C   0  0  0  0  0  0  0  0  0  0  0  0
  -11.6985  -22.0005   31.9389 H   0  0  0  0  0  0  0  0  0  0  0  0
  -13.0266  -22.2316   30.8138 H   0  0  0  0  0  0  0  0  0  0  0  0
  -11.3914  -22.0525   30.1843 H   0  0  0  0  0  0  0  0  0  0  0  0
  -10.8494  -24.1842   31.6090 H   0  0  0  0  0  0  0  0  0  0  0  0
  -12.5700  -24.4538   31.7131 H   0  0  0  0  0  0  0  0  0  0  0  0
  -13.4269  -24.9414   25.9228 H   0  0  0  0  0  0  0  0  0  0  0  0
  -12.3961  -23.6126   26.1445 H   0  0  0  0  0  0  0  0  0  0  0  0
  -10.3936  -24.9604   26.0178 H   0  0  0  0  0  0  0  0  0  0  0  0
  -11.1021  -24.5573   24.5165 H   0  0  0  0  0  0  0  0  0  0  0  0
  -12.4483  -26.7903   24.6526 H   0  0  0  0  0  0  0  0  0  0  0  0
  -10.0681  -28.3714   25.0395 H   0  0  0  0  0  0  0  0  0  0  0  0
   -8.9964  -28.5839   22.3635 H   0  0  0  0  0  0  0  0  0  0  0  0
  -10.0610  -29.3043   23.0366 H   0  0  0  0  0  0  0  0  0  0  0  0
  -11.5603  -27.5658   21.8303 H   0  0  0  0  0  0  0  0  0  0  0  0
  -11.0525  -28.1076   20.4203 H   0  0  0  0  0  0  0  0  0  0  0  0
  -13.6424  -26.7797   18.4037 H   0  0  0  0  0  0  0  0  0  0  0  0
  -14.6196  -26.8293   16.2656 H   0  0  0  0  0  0  0  0  0  0  0  0
  -13.2018  -26.8085   14.2180 H   0  0  0  0  0  0  0  0  0  0  0  0
   -9.7847  -26.7812   16.3577 H   0  0  0  0  0  0  0  0  0  0  0  0
  -11.9420  -28.2099   26.6652 H   0  0  0  0  0  0  0  0  0  0  0  0
  -10.5844  -27.1376   27.0339 H   0  0  0  0  0  0  0  0  0  0  0  0
  -13.5841  -26.3725   27.1817 H   0  0  0  0  0  0  0  0  0  0  0  0
  -12.4838  -26.7529   28.4212 H   0  0  0  0  0  0  0  0  0  0  0  0
  1  2  1  0
  2  3  1  0
  3  4  1  0
  4  5  2  0
  4  6  1  0
  6  7  1  0
  7  8  1  0
  8  9  1  0
  9 10  1  0
 10 11  1  0
 11 12  1  0
 12 13  1  0
 13 14  1  0
 14 15  2  0
 15 16  1  0
 16 17  2  0
 17 18  1  0
 18 19  2  0
  9 20  1  0
 20 21  1  0
 21  6  1  0
 19 14  1  0
  1 22  1  0
  1 23  1  0
  1 24  1  0
  2 25  1  0
  2 26  1  0
  7 27  1  0
  7 28  1  0
  8 29  1  0
  8 30  1  0
  9 31  1  0
 10 32  1  0
 11 33  1  0
 11 34  1  0
 12 35  1  0
 12 36  1  0
 15 37  1  0
 16 38  1  0
 17 39  1  0
 19 40  1  0
 20 41  1  0
 20 42  1  0
 21 43  1  0
 21 44  1  0
M  END
>  <Energy>  (807) 
498.80264888378622

>  <compound_id>  (807) 
87573

>  <target_id>  (807) 
1

>  <reference_id>  (807) 
123

>  <inspiration_ids>  (807) 
[123, 48]

>  <energy_score>  (807) 
455.1337207903571

>  <distance_score>  (807) 
6.665358834935278

>  <path>  (807) 
/opt/xchem-fragalysis-2/maxwin/BulkDock/SCRATCH/511017/C87573-P123/C87573-P123.minimised.mol

>  <scratch_subdir>  (807) 
/opt/xchem-fragalysis-2/maxwin/BulkDock/SCRATCH/511017/C87573-P123

>  <fragmenstein_runtime>  (807) 
14.749728441238403

>  <fragmenstein_outcome>  (807) 
too moved

>  <fragmenstein_mode>  (807) 
expansion

>  <fragmenstein_error>  (807) 


$$$$
C87573-P48
     RDKit          3D

 44 45  0  0  0  0  0  0  0  0999 V2000
  -12.4732  -26.0932   27.2553 C   0  0  0  0  0  0  0  0  0  0  0  0
  -13.3172  -27.3322   27.0066 C   0  0  0  0  0  0  0  0  0  0  0  0
  -14.7226  -27.0194   26.9891 O   0  0  0  0  0  0  0  0  0  0  0  0
  -15.2701  -26.6413   25.7906 C   0  0  0  0  0  0  0  0  0  0  0  0
  -14.6090  -26.5641   24.7915 O   0  0  0  0  0  0  0  0  0  0  0  0
  -16.6283  -26.3051   26.0284 N   0  0  0  0  0  0  0  0  0  0  0  0
  -17.6593  -25.6323   25.1318 C   0  0  0  0  0  0  0  0  0  0  0  0
  -18.0559  -26.0794   23.7043 C   0  0  0  0  0  0  0  0  0  0  0  0
  -17.2316  -27.2675   23.2778 C   0  0  0  0  0  0  0  0  0  0  0  0
  -17.5198  -27.9276   21.9918 N   0  0  0  0  0  0  0  0  0  0  0  0
  -17.5439  -27.0448   20.7959 C   0  0  0  0  0  0  0  0  0  0  0  0
  -16.9397  -27.6086   19.4547 C   0  0  0  0  0  0  0  0  0  0  0  0
  -16.9270  -26.5764   18.4403 O   0  0  0  0  0  0  0  0  0  0  0  0
  -16.1935  -26.7230   17.2857 C   0  0  0  0  0  0  0  0  0  0  0  0
  -15.4991  -27.8532   16.8703 C   0  0  0  0  0  0  0  0  0  0  0  0
  -14.7857  -27.8291   15.6611 C   0  0  0  0  0  0  0  0  0  0  0  0
  -14.7897  -26.6714   14.8964 C   0  0  0  0  0  0  0  0  0  0  0  0
  -15.4520  -25.5556   15.2547 N   0  0  0  0  0  0  0  0  0  0  0  0
  -16.1370  -25.6150   16.4314 C   0  0  0  0  0  0  0  0  0  0  0  0
  -17.4178  -28.2503   24.4322 C   0  0  0  0  0  0  0  0  0  0  0  0
  -17.5152  -27.5032   25.7787 C   0  0  0  0  0  0  0  0  0  0  0  0
  -12.7224  -25.6457   28.2226 H   0  0  0  0  0  0  0  0  0  0  0  0
  -12.6547  -25.3329   26.4896 H   0  0  0  0  0  0  0  0  0  0  0  0
  -11.4091  -26.3455   27.2536 H   0  0  0  0  0  0  0  0  0  0  0  0
  -13.0095  -27.8150   26.0769 H   0  0  0  0  0  0  0  0  0  0  0  0
  -13.1596  -28.0553   27.8133 H   0  0  0  0  0  0  0  0  0  0  0  0
  -18.5462  -25.3595   25.7283 H   0  0  0  0  0  0  0  0  0  0  0  0
  -17.1783  -24.6538   24.9738 H   0  0  0  0  0  0  0  0  0  0  0  0
  -19.1239  -26.3385   23.7009 H   0  0  0  0  0  0  0  0  0  0  0  0
  -17.9606  -25.2420   23.0112 H   0  0  0  0  0  0  0  0  0  0  0  0
  -16.2032  -26.9216   23.2064 H   0  0  0  0  0  0  0  0  0  0  0  0
  -16.8616  -28.6876   21.8383 H   0  0  0  0  0  0  0  0  0  0  0  0
  -17.0081  -26.1311   21.0194 H   0  0  0  0  0  0  0  0  0  0  0  0
  -18.5806  -26.7416   20.6080 H   0  0  0  0  0  0  0  0  0  0  0  0
  -17.5442  -28.4509   19.1013 H   0  0  0  0  0  0  0  0  0  0  0  0
  -15.9163  -27.9449   19.6412 H   0  0  0  0  0  0  0  0  0  0  0  0
  -15.4994  -28.7636   17.4591 H   0  0  0  0  0  0  0  0  0  0  0  0
  -14.2398  -28.7038   15.3242 H   0  0  0  0  0  0  0  0  0  0  0  0
  -14.2502  -26.6146   13.9558 H   0  0  0  0  0  0  0  0  0  0  0  0
  -16.6643  -24.6999   16.6945 H   0  0  0  0  0  0  0  0  0  0  0  0
  -18.3459  -28.8250   24.3056 H   0  0  0  0  0  0  0  0  0  0  0  0
  -16.6255  -28.9987   24.4810 H   0  0  0  0  0  0  0  0  0  0  0  0
  -17.1589  -28.2366   26.5212 H   0  0  0  0  0  0  0  0  0  0  0  0
  -18.5590  -27.3636   26.1151 H   0  0  0  0  0  0  0  0  0  0  0  0
  1  2  1  0
  2  3  1  0
  3  4  1  0
  4  5  2  0
  4  6  1  0
  6  7  1  0
  7  8  1  0
  8  9  1  0
  9 10  1  0
 10 11  1  0
 11 12  1  0
 12 13  1  0
 13 14  1  0
 14 15  2  0
 15 16  1  0
 16 17  2  0
 17 18  1  0
 18 19  2  0
  9 20  1  0
 20 21  1  0
 21  6  1  0
 19 14  1  0
  1 22  1  0
  1 23  1  0
  1 24  1  0
  2 25  1  0
  2 26  1  0
  7 27  1  0
  7 28  1  0
  8 29  1  0
  8 30  1  0
  9 31  1  0
 10 32  1  0
 11 33  1  0
 11 34  1  0
 12 35  1  0
 12 36  1  0
 15 37  1  0
 16 38  1  0
 17 39  1  0
 19 40  1  0
 20 41  1  0
 20 42  1  0
 21 43  1  0
 21 44  1  0
M  END
>  <Energy>  (808) 
86.933900409527809

>  <compound_id>  (808) 
87573

>  <target_id>  (808) 
1

>  <reference_id>  (808) 
48

>  <inspiration_ids>  (808) 
[123, 48]

>  <energy_score>  (808) 
43.26497231609221

>  <distance_score>  (808) 
8.35876214131964

>  <path>  (808) 
/opt/xchem-fragalysis-2/maxwin/BulkDock/SCRATCH/511017/C87573-P48/C87573-P48.minimised.mol

>  <scratch_subdir>  (808) 
/opt/xchem-fragalysis-2/maxwin/BulkDock/SCRATCH/511017/C87573-P48

>  <fragmenstein_runtime>  (808) 
7.596027851104736

>  <fragmenstein_outcome>  (808) 
too moved

>  <fragmenstein_mode>  (808) 
expansion

>  <fragmenstein_error>  (808) 


$$$$
C87574-P123
     RDKit          3D

 44 45  0  0  0  0  0  0  0  0999 V2000
  -13.7456  -29.6735   12.8389 C   0  0  0  0  0  0  0  0  0  0  0  0
  -14.0006  -28.2382   12.4184 C   0  0  0  0  0  0  0  0  0  0  0  0
  -13.8038  -27.3554   13.5322 O   0  0  0  0  0  0  0  0  0  0  0  0
  -14.8784  -27.1571   14.3519 C   0  0  0  0  0  0  0  0  0  0  0  0
  -15.9363  -27.6908   14.1723 O   0  0  0  0  0  0  0  0  0  0  0  0
  -14.4651  -26.2515   15.3516 N   0  0  0  0  0  0  0  0  0  0  0  0
  -15.2327  -25.5848   16.4333 C   0  0  0  0  0  0  0  0  0  0  0  0
  -14.4793  -24.5065   17.2354 C   0  0  0  0  0  0  0  0  0  0  0  0
  -13.5855  -25.1397   18.3799 C   0  0  0  0  0  0  0  0  0  0  0  0
  -13.0590  -24.1861   19.7823 N   0  0  0  0  0  0  0  0  0  0  0  0
  -12.2537  -22.9304   20.8275 C   0  0  0  0  0  0  0  0  0  0  0  0
  -12.1922  -22.6232   22.7253 C   0  0  0  0  0  0  0  0  0  0  0  0
  -11.2756  -21.5073   22.8131 O   0  0  0  0  0  0  0  0  0  0  0  0
  -11.9511  -23.3524   24.2694 C   0  0  0  0  0  0  0  0  0  0  0  0
  -11.3667  -24.5245   24.8722 C   0  0  0  0  0  0  0  0  0  0  0  0
  -11.4040  -24.9040   26.2456 C   0  0  0  0  0  0  0  0  0  0  0  0
  -11.8448  -24.0018   27.1549 C   0  0  0  0  0  0  0  0  0  0  0  0
  -12.1668  -22.7945   26.7294 N   0  0  0  0  0  0  0  0  0  0  0  0
  -12.2030  -22.5494   25.3407 C   0  0  0  0  0  0  0  0  0  0  0  0
  -12.8424  -26.2234   17.3535 C   0  0  0  0  0  0  0  0  0  0  0  0
  -13.8851  -27.0010   16.5223 C   0  0  0  0  0  0  0  0  0  0  0  0
  -13.8338  -30.3497   11.9839 H   0  0  0  0  0  0  0  0  0  0  0  0
  -12.7437  -29.7757   13.2687 H   0  0  0  0  0  0  0  0  0  0  0  0
  -14.4559  -29.9897   13.6094 H   0  0  0  0  0  0  0  0  0  0  0  0
  -13.2781  -27.9471   11.6489 H   0  0  0  0  0  0  0  0  0  0  0  0
  -14.9991  -28.1171   11.9830 H   0  0  0  0  0  0  0  0  0  0  0  0
  -15.9199  -26.2230   17.0156 H   0  0  0  0  0  0  0  0  0  0  0  0
  -15.9661  -25.0132   15.8400 H   0  0  0  0  0  0  0  0  0  0  0  0
  -15.2263  -23.8006   17.5498 H   0  0  0  0  0  0  0  0  0  0  0  0
  -13.9152  -23.9360   16.5397 H   0  0  0  0  0  0  0  0  0  0  0  0
  -14.1807  -25.8347   18.9544 H   0  0  0  0  0  0  0  0  0  0  0  0
  -13.0727  -23.4124   19.0946 H   0  0  0  0  0  0  0  0  0  0  0  0
  -12.5693  -22.0198   20.3887 H   0  0  0  0  0  0  0  0  0  0  0  0
  -11.1988  -22.8329   20.6062 H   0  0  0  0  0  0  0  0  0  0  0  0
  -13.2000  -22.2223   22.8779 H   0  0  0  0  0  0  0  0  0  0  0  0
  -10.4453  -21.8302   22.4138 H   0  0  0  0  0  0  0  0  0  0  0  0
  -10.8352  -25.2883   24.3350 H   0  0  0  0  0  0  0  0  0  0  0  0
  -11.0339  -25.8694   26.5738 H   0  0  0  0  0  0  0  0  0  0  0  0
  -11.8795  -24.1854   28.2208 H   0  0  0  0  0  0  0  0  0  0  0  0
  -12.1407  -21.4872   25.0757 H   0  0  0  0  0  0  0  0  0  0  0  0
  -12.1799  -25.7454   16.6203 H   0  0  0  0  0  0  0  0  0  0  0  0
  -12.2453  -26.9959   17.8223 H   0  0  0  0  0  0  0  0  0  0  0  0
  -13.2854  -27.7959   16.0457 H   0  0  0  0  0  0  0  0  0  0  0  0
  -14.5926  -27.6136   17.1070 H   0  0  0  0  0  0  0  0  0  0  0  0
  1  2  1  0
  2  3  1  0
  3  4  1  0
  4  5  2  0
  4  6  1  0
  6  7  1  0
  7  8  1  0
  8  9  1  0
  9 10  1  0
 10 11  1  0
 11 12  1  0
 12 13  1  0
 12 14  1  0
 14 15  2  0
 15 16  1  0
 16 17  2  0
 17 18  1  0
 18 19  2  0
  9 20  1  0
 20 21  1  0
 21  6  1  0
 19 14  1  0
  1 22  1  0
  1 23  1  0
  1 24  1  0
  2 25  1  0
  2 26  1  0
  7 27  1  0
  7 28  1  0
  8 29  1  0
  8 30  1  0
  9 31  1  0
 10 32  1  0
 11 33  1  0
 11 34  1  0
 12 35  1  0
 13 36  1  0
 15 37  1  0
 16 38  1  0
 17 39  1  0
 19 40  1  0
 20 41  1  0
 20 42  1  0
 21 43  1  0
 21 44  1  0
M  END
>  <Energy>  (809) 
355.36199680712087

>  <compound_id>  (809) 
87574

>  <target_id>  (809) 
1

>  <reference_id>  (809) 
123

>  <inspiration_ids>  (809) 
[123, 48]

>  <energy_score>  (809) 
303.6092068430324

>  <distance_score>  (809) 
7.910883574874056

>  <path>  (809) 
/opt/xchem-fragalysis-2/maxwin/BulkDock/SCRATCH/511017/C87574-P123/C87574-P123.minimised.mol

>  <scratch_subdir>  (809) 
/opt/xchem-fragalysis-2/maxwin/BulkDock/SCRATCH/511017/C87574-P123

>  <fragmenstein_runtime>  (809) 
9.044874429702759

>  <fragmenstein_outcome>  (809) 
too moved

>  <fragmenstein_mode>  (809) 
expansion

>  <fragmenstein_error>  (809) 


$$$$
C87574-P48
     RDKit          3D

 44 45  0  0  0  0  0  0  0  0999 V2000
  -19.3186  -27.6441   16.7315 C   0  0  0  0  0  0  0  0  0  0  0  0
  -18.1665  -27.6319   17.7169 C   0  0  0  0  0  0  0  0  0  0  0  0
  -16.9529  -27.4307   16.9826 O   0  0  0  0  0  0  0  0  0  0  0  0
  -15.8210  -27.3723   17.7435 C   0  0  0  0  0  0  0  0  0  0  0  0
  -15.8420  -27.4924   18.9379 O   0  0  0  0  0  0  0  0  0  0  0  0
  -14.7415  -27.1353   16.8619 N   0  0  0  0  0  0  0  0  0  0  0  0
  -13.2810  -27.0685   17.1125 C   0  0  0  0  0  0  0  0  0  0  0  0
  -12.8212  -26.5792   18.4878 C   0  0  0  0  0  0  0  0  0  0  0  0
  -13.5359  -25.3046   19.1170 C   0  0  0  0  0  0  0  0  0  0  0  0
  -12.5895  -24.3827   20.2145 N   0  0  0  0  0  0  0  0  0  0  0  0
  -12.5609  -22.9592   21.3221 C   0  0  0  0  0  0  0  0  0  0  0  0
  -13.0611  -22.5444   23.1613 C   0  0  0  0  0  0  0  0  0  0  0  0
  -14.0633  -21.5411   23.3739 O   0  0  0  0  0  0  0  0  0  0  0  0
  -13.2664  -23.3231   24.5607 C   0  0  0  0  0  0  0  0  0  0  0  0
  -13.9125  -24.5499   24.8232 C   0  0  0  0  0  0  0  0  0  0  0  0
  -13.4636  -25.3819   25.8747 C   0  0  0  0  0  0  0  0  0  0  0  0
  -12.5385  -24.8913   26.7808 C   0  0  0  0  0  0  0  0  0  0  0  0
  -12.1113  -23.6269   26.7277 N   0  0  0  0  0  0  0  0  0  0  0  0
  -12.5073  -22.8784   25.6580 C   0  0  0  0  0  0  0  0  0  0  0  0
  -14.3034  -24.7455   17.8679 C   0  0  0  0  0  0  0  0  0  0  0  0
  -14.5516  -25.6696   16.6586 C   0  0  0  0  0  0  0  0  0  0  0  0
  -19.1854  -28.4410   15.9925 H   0  0  0  0  0  0  0  0  0  0  0  0
  -20.2712  -27.7954   17.2467 H   0  0  0  0  0  0  0  0  0  0  0  0
  -19.3619  -26.7004   16.1777 H   0  0  0  0  0  0  0  0  0  0  0  0
  -18.3040  -26.8162   18.4356 H   0  0  0  0  0  0  0  0  0  0  0  0
  -18.1225  -28.5897   18.2472 H   0  0  0  0  0  0  0  0  0  0  0  0
  -13.0108  -28.1377   17.1071 H   0  0  0  0  0  0  0  0  0  0  0  0
  -12.6513  -26.7094   16.2787 H   0  0  0  0  0  0  0  0  0  0  0  0
  -11.7450  -26.4520   18.4144 H   0  0  0  0  0  0  0  0  0  0  0  0
  -13.0102  -27.4368   19.1471 H   0  0  0  0  0  0  0  0  0  0  0  0
  -14.2430  -25.8093   19.7575 H   0  0  0  0  0  0  0  0  0  0  0  0
  -11.9692  -25.0762   20.6292 H   0  0  0  0  0  0  0  0  0  0  0  0
  -11.4923  -22.8832   21.4683 H   0  0  0  0  0  0  0  0  0  0  0  0
  -12.5567  -22.1363   20.6401 H   0  0  0  0  0  0  0  0  0  0  0  0
  -12.1274  -21.9934   23.3613 H   0  0  0  0  0  0  0  0  0  0  0  0
  -14.1853  -21.3439   24.3332 H   0  0  0  0  0  0  0  0  0  0  0  0
  -14.6109  -25.0263   24.1590 H   0  0  0  0  0  0  0  0  0  0  0  0
  -13.8545  -26.3904   25.9763 H   0  0  0  0  0  0  0  0  0  0  0  0
  -12.1626  -25.4826   27.6095 H   0  0  0  0  0  0  0  0  0  0  0  0
  -12.1112  -21.8655   25.6676 H   0  0  0  0  0  0  0  0  0  0  0  0
  -15.2938  -24.3666   18.0877 H   0  0  0  0  0  0  0  0  0  0  0  0
  -13.7905  -23.8860   17.4931 H   0  0  0  0  0  0  0  0  0  0  0  0
  -15.5312  -25.3438   16.2659 H   0  0  0  0  0  0  0  0  0  0  0  0
  -13.9250  -25.4139   15.7850 H   0  0  0  0  0  0  0  0  0  0  0  0
  1  2  1  0
  2  3  1  0
  3  4  1  0
  4  5  2  0
  4  6  1  0
  6  7  1  0
  7  8  1  0
  8  9  1  0
  9 10  1  0
 10 11  1  0
 11 12  1  0
 12 13  1  0
 12 14  1  0
 14 15  2  0
 15 16  1  0
 16 17  2  0
 17 18  1  0
 18 19  2  0
  9 20  1  0
 20 21  1  0
 21  6  1  0
 19 14  1  0
  1 22  1  0
  1 23  1  0
  1 24  1  0
  2 25  1  0
  2 26  1  0
  7 27  1  0
  7 28  1  0
  8 29  1  0
  8 30  1  0
  9 31  1  0
 10 32  1  0
 11 33  1  0
 11 34  1  0
 12 35  1  0
 13 36  1  0
 15 37  1  0
 16 38  1  0
 17 39  1  0
 19 40  1  0
 20 41  1  0
 20 42  1  0
 21 43  1  0
 21 44  1  0
M  END
>  <Energy>  (810) 
274.05061857870402

>  <compound_id>  (810) 
87574

>  <target_id>  (810) 
1

>  <reference_id>  (810) 
48

>  <inspiration_ids>  (810) 
[123, 48]

>  <energy_score>  (810) 
222.29782861461482

>  <distance_score>  (810) 
8.299678303915181

>  <path>  (810) 
/opt/xchem-fragalysis-2/maxwin/BulkDock/SCRATCH/511017/C87574-P48/C87574-P48.minimised.mol

>  <scratch_subdir>  (810) 
/opt/xchem-fragalysis-2/maxwin/BulkDock/SCRATCH/511017/C87574-P48

>  <fragmenstein_runtime>  (810) 
5.695085763931274

>  <fragmenstein_outcome>  (810) 
too moved

>  <fragmenstein_mode>  (810) 
expansion

>  <fragmenstein_error>  (810) 


$$$$
C87575-P123
     RDKit          3D

 37 38  0  0  0  0  0  0  0  0999 V2000
  -11.3974  -24.1542   27.6584 C   0  0  0  0  0  0  0  0  0  0  0  0
  -12.1838  -24.1438   26.3600 C   0  0  0  0  0  0  0  0  0  0  0  0
  -11.9319  -22.8943   25.6983 O   0  0  0  0  0  0  0  0  0  0  0  0
  -12.3967  -22.2948   24.5529 C   0  0  0  0  0  0  0  0  0  0  0  0
  -11.9721  -21.1651   24.1987 O   0  0  0  0  0  0  0  0  0  0  0  0
  -13.4247  -22.9117   23.6136 C   0  0  0  0  0  0  0  0  0  0  0  0
  -12.6806  -22.6068   22.2112 N   0  0  0  0  0  0  0  0  0  0  0  0
  -12.9114  -23.0292   20.6678 C   0  0  0  0  0  0  0  0  0  0  0  0
  -13.3506  -24.4748   19.5013 C   0  0  0  0  0  0  0  0  0  0  0  0
  -14.1904  -25.3570   20.2193 O   0  0  0  0  0  0  0  0  0  0  0  0
  -13.7942  -24.9689   17.8482 C   0  0  0  0  0  0  0  0  0  0  0  0
  -13.2148  -26.1364   17.2465 C   0  0  0  0  0  0  0  0  0  0  0  0
  -13.4323  -26.5346   15.9130 C   0  0  0  0  0  0  0  0  0  0  0  0
  -14.2876  -25.7936   15.1408 C   0  0  0  0  0  0  0  0  0  0  0  0
  -14.9434  -24.7393   15.6361 N   0  0  0  0  0  0  0  0  0  0  0  0
  -14.6985  -24.3922   16.9454 C   0  0  0  0  0  0  0  0  0  0  0  0
  -14.1243  -24.2486   24.0596 C   0  0  0  0  0  0  0  0  0  0  0  0
  -15.1226  -23.5390   24.7981 O   0  0  0  0  0  0  0  0  0  0  0  0
  -14.8916  -22.3854   23.9549 C   0  0  0  0  0  0  0  0  0  0  0  0
  -10.3264  -24.0541   27.4636 H   0  0  0  0  0  0  0  0  0  0  0  0
  -11.5682  -25.0827   28.2104 H   0  0  0  0  0  0  0  0  0  0  0  0
  -11.6861  -23.3073   28.2901 H   0  0  0  0  0  0  0  0  0  0  0  0
  -11.8321  -24.9633   25.7279 H   0  0  0  0  0  0  0  0  0  0  0  0
  -13.2402  -24.2379   26.6080 H   0  0  0  0  0  0  0  0  0  0  0  0
  -12.0399  -21.8001   22.2270 H   0  0  0  0  0  0  0  0  0  0  0  0
  -12.5948  -22.2108   20.0493 H   0  0  0  0  0  0  0  0  0  0  0  0
  -13.8264  -23.1958   21.1757 H   0  0  0  0  0  0  0  0  0  0  0  0
  -12.3320  -24.7567   19.5737 H   0  0  0  0  0  0  0  0  0  0  0  0
  -14.4596  -24.9921   21.0805 H   0  0  0  0  0  0  0  0  0  0  0  0
  -12.4918  -26.7523   17.7577 H   0  0  0  0  0  0  0  0  0  0  0  0
  -12.9194  -27.3977   15.5028 H   0  0  0  0  0  0  0  0  0  0  0  0
  -14.4857  -26.0382   14.1032 H   0  0  0  0  0  0  0  0  0  0  0  0
  -15.4143  -23.6492   17.2289 H   0  0  0  0  0  0  0  0  0  0  0  0
  -14.5739  -24.9318   23.3474 H   0  0  0  0  0  0  0  0  0  0  0  0
  -13.6479  -24.9420   24.7481 H   0  0  0  0  0  0  0  0  0  0  0  0
  -15.0183  -21.4099   24.4174 H   0  0  0  0  0  0  0  0  0  0  0  0
  -15.8228  -22.4140   23.4091 H   0  0  0  0  0  0  0  0  0  0  0  0
  1  2  1  0
  2  3  1  0
  3  4  1  0
  4  5  2  0
  4  6  1  0
  6  7  1  0
  7  8  1  0
  8  9  1  0
  9 10  1  0
  9 11  1  0
 11 12  2  0
 12 13  1  0
 13 14  2  0
 14 15  1  0
 15 16  2  0
  6 17  1  0
 17 18  1  0
 18 19  1  0
 19  6  1  0
 16 11  1  0
  1 20  1  0
  1 21  1  0
  1 22  1  0
  2 23  1  0
  2 24  1  0
  7 25  1  0
  8 26  1  0
  8 27  1  0
  9 28  1  0
 10 29  1  0
 12 30  1  0
 13 31  1  0
 14 32  1  0
 16 33  1  0
 17 34  1  0
 17 35  1  0
 19 36  1  0
 19 37  1  0
M  END
>  <Energy>  (811) 
337.76575654543007

>  <compound_id>  (811) 
87575

>  <target_id>  (811) 
1

>  <reference_id>  (811) 
123

>  <inspiration_ids>  (811) 
[123, 48]

>  <energy_score>  (811) 
202.0923617216407

>  <distance_score>  (811) 
7.45838729878544

>  <path>  (811) 
/opt/xchem-fragalysis-2/maxwin/BulkDock/SCRATCH/511017/C87575-P123/C87575-P123.minimised.mol

>  <scratch_subdir>  (811) 
/opt/xchem-fragalysis-2/maxwin/BulkDock/SCRATCH/511017/C87575-P123

>  <fragmenstein_runtime>  (811) 
7.198624849319458

>  <fragmenstein_outcome>  (811) 
too moved

>  <fragmenstein_mode>  (811) 
expansion

>  <fragmenstein_error>  (811) 


$$$$
C87575-P48
     RDKit          3D

 37 38  0  0  0  0  0  0  0  0999 V2000
  -15.0243  -26.9913   25.7304 C   0  0  0  0  0  0  0  0  0  0  0  0
  -15.9640  -26.0654   24.9702 C   0  0  0  0  0  0  0  0  0  0  0  0
  -16.2140  -26.6822   23.6981 O   0  0  0  0  0  0  0  0  0  0  0  0
  -17.2645  -26.1833   22.9716 C   0  0  0  0  0  0  0  0  0  0  0  0
  -17.7274  -25.0732   23.2185 O   0  0  0  0  0  0  0  0  0  0  0  0
  -17.7907  -27.2653   21.9280 C   0  0  0  0  0  0  0  0  0  0  0  0
  -16.9901  -27.5679   20.6791 N   0  0  0  0  0  0  0  0  0  0  0  0
  -17.3957  -26.9182   19.3815 C   0  0  0  0  0  0  0  0  0  0  0  0
  -16.2871  -27.2691   18.2831 C   0  0  0  0  0  0  0  0  0  0  0  0
  -15.0025  -27.0422   18.8875 O   0  0  0  0  0  0  0  0  0  0  0  0
  -16.1786  -26.6591   16.8941 C   0  0  0  0  0  0  0  0  0  0  0  0
  -15.1710  -27.1208   16.0159 C   0  0  0  0  0  0  0  0  0  0  0  0
  -15.0012  -26.5683   14.7455 C   0  0  0  0  0  0  0  0  0  0  0  0
  -15.8568  -25.5553   14.3666 C   0  0  0  0  0  0  0  0  0  0  0  0
  -16.8398  -25.0816   15.1626 N   0  0  0  0  0  0  0  0  0  0  0  0
  -16.9722  -25.6348   16.4010 C   0  0  0  0  0  0  0  0  0  0  0  0
  -18.0151  -28.6385   22.6646 C   0  0  0  0  0  0  0  0  0  0  0  0
  -19.4005  -28.2723   22.8987 O   0  0  0  0  0  0  0  0  0  0  0  0
  -19.3149  -27.3387   21.7747 C   0  0  0  0  0  0  0  0  0  0  0  0
  -15.4042  -28.0186   25.7106 H   0  0  0  0  0  0  0  0  0  0  0  0
  -14.0369  -27.0032   25.2622 H   0  0  0  0  0  0  0  0  0  0  0  0
  -14.9091  -26.7144   26.7755 H   0  0  0  0  0  0  0  0  0  0  0  0
  -15.4998  -25.0860   24.8245 H   0  0  0  0  0  0  0  0  0  0  0  0
  -16.9037  -25.9577   25.5228 H   0  0  0  0  0  0  0  0  0  0  0  0
  -16.9050  -28.5689   20.4850 H   0  0  0  0  0  0  0  0  0  0  0  0
  -18.3644  -27.2966   19.0401 H   0  0  0  0  0  0  0  0  0  0  0  0
  -17.4826  -25.8404   19.5174 H   0  0  0  0  0  0  0  0  0  0  0  0
  -16.3620  -28.3550   18.1308 H   0  0  0  0  0  0  0  0  0  0  0  0
  -15.1873  -26.9715   19.8388 H   0  0  0  0  0  0  0  0  0  0  0  0
  -14.4915  -27.9061   16.3437 H   0  0  0  0  0  0  0  0  0  0  0  0
  -14.2186  -26.9164   14.0816 H   0  0  0  0  0  0  0  0  0  0  0  0
  -15.7770  -25.0821   13.3927 H   0  0  0  0  0  0  0  0  0  0  0  0
  -17.7649  -25.1902   16.9975 H   0  0  0  0  0  0  0  0  0  0  0  0
  -17.9574  -29.5574   22.0691 H   0  0  0  0  0  0  0  0  0  0  0  0
  -17.4871  -28.8019   23.6076 H   0  0  0  0  0  0  0  0  0  0  0  0
  -19.7178  -27.7959   20.8651 H   0  0  0  0  0  0  0  0  0  0  0  0
  -19.8588  -26.4131   21.9838 H   0  0  0  0  0  0  0  0  0  0  0  0
  1  2  1  0
  2  3  1  0
  3  4  1  0
  4  5  2  0
  4  6  1  0
  6  7  1  0
  7  8  1  0
  8  9  1  0
  9 10  1  0
  9 11  1  0
 11 12  2  0
 12 13  1  0
 13 14  2  0
 14 15  1  0
 15 16  2  0
  6 17  1  0
 17 18  1  0
 18 19  1  0
 19  6  1  0
 16 11  1  0
  1 20  1  0
  1 21  1  0
  1 22  1  0
  2 23  1  0
  2 24  1  0
  7 25  1  0
  8 26  1  0
  8 27  1  0
  9 28  1  0
 10 29  1  0
 12 30  1  0
 13 31  1  0
 14 32  1  0
 16 33  1  0
 17 34  1  0
 17 35  1  0
 19 36  1  0
 19 37  1  0
M  END
>  <Energy>  (812) 
119.58442967054998

>  <compound_id>  (812) 
87575

>  <target_id>  (812) 
1

>  <reference_id>  (812) 
48

>  <inspiration_ids>  (812) 
[123, 48]

>  <energy_score>  (812) 
-16.088965153239542

>  <distance_score>  (812) 
9.45764631903851

>  <path>  (812) 
/opt/xchem-fragalysis-2/maxwin/BulkDock/SCRATCH/511017/C87575-P48/C87575-P48.minimised.mol

>  <scratch_subdir>  (812) 
/opt/xchem-fragalysis-2/maxwin/BulkDock/SCRATCH/511017/C87575-P48

>  <fragmenstein_runtime>  (812) 
5.059859752655029

>  <fragmenstein_outcome>  (812) 
too moved

>  <fragmenstein_mode>  (812) 
expansion

>  <fragmenstein_error>  (812) 


$$$$
C87576-P123
     RDKit          3D

 35 36  0  0  0  0  0  0  0  0999 V2000
  -11.7825  -22.4690   28.5671 C   0  0  0  0  0  0  0  0  0  0  0  0
  -12.5731  -23.6814   29.0025 C   0  0  0  0  0  0  0  0  0  0  0  0
  -12.0925  -24.8244   28.2945 O   0  0  0  0  0  0  0  0  0  0  0  0
  -12.4564  -24.9595   26.9917 C   0  0  0  0  0  0  0  0  0  0  0  0
  -13.3027  -24.3165   26.3975 O   0  0  0  0  0  0  0  0  0  0  0  0
  -11.6626  -25.9945   26.4324 C   0  0  0  0  0  0  0  0  0  0  0  0
  -10.7375  -26.8061   27.0225 C   0  0  0  0  0  0  0  0  0  0  0  0
  -10.2484  -27.6921   26.0989 N   0  0  0  0  0  0  0  0  0  0  0  0
  -10.8100  -27.3319   24.9798 C   0  0  0  0  0  0  0  0  0  0  0  0
  -10.7554  -28.0547   23.7278 N   0  0  0  0  0  0  0  0  0  0  0  0
  -10.9895  -27.5416   21.9498 C   0  0  0  0  0  0  0  0  0  0  0  0
  -11.1554  -28.1934   20.0458 C   0  0  0  0  0  0  0  0  0  0  0  0
  -12.0921  -27.7644   18.4096 O   0  0  0  0  0  0  0  0  0  0  0  0
  -12.1167  -28.1428   17.0914 C   0  0  0  0  0  0  0  0  0  0  0  0
  -12.4153  -29.4087   16.6250 C   0  0  0  0  0  0  0  0  0  0  0  0
  -12.5179  -29.6293   15.2436 C   0  0  0  0  0  0  0  0  0  0  0  0
  -12.3569  -28.5617   14.3704 C   0  0  0  0  0  0  0  0  0  0  0  0
  -12.1159  -27.3059   14.7832 N   0  0  0  0  0  0  0  0  0  0  0  0
  -12.0071  -27.1338   16.1270 C   0  0  0  0  0  0  0  0  0  0  0  0
  -11.7126  -26.3229   25.1019 O   0  0  0  0  0  0  0  0  0  0  0  0
  -10.7113  -22.6658   28.6199 H   0  0  0  0  0  0  0  0  0  0  0  0
  -11.9798  -22.2256   27.5213 H   0  0  0  0  0  0  0  0  0  0  0  0
  -12.0226  -21.6024   29.1875 H   0  0  0  0  0  0  0  0  0  0  0  0
  -13.6469  -23.5665   28.8500 H   0  0  0  0  0  0  0  0  0  0  0  0
  -12.4074  -23.8679   30.0681 H   0  0  0  0  0  0  0  0  0  0  0  0
  -10.4113  -26.7885   28.0550 H   0  0  0  0  0  0  0  0  0  0  0  0
  -10.1980  -28.9152   23.7651 H   0  0  0  0  0  0  0  0  0  0  0  0
  -11.8927  -27.7824   22.4588 H   0  0  0  0  0  0  0  0  0  0  0  0
   -9.9727  -27.9776   22.1447 H   0  0  0  0  0  0  0  0  0  0  0  0
  -11.0162  -29.2711   19.8184 H   0  0  0  0  0  0  0  0  0  0  0  0
  -10.5559  -27.3326   19.8224 H   0  0  0  0  0  0  0  0  0  0  0  0
  -12.5943  -30.2238   17.3158 H   0  0  0  0  0  0  0  0  0  0  0  0
  -12.7355  -30.6197   14.8583 H   0  0  0  0  0  0  0  0  0  0  0  0
  -12.4298  -28.6954   13.2953 H   0  0  0  0  0  0  0  0  0  0  0  0
  -11.8239  -26.1100   16.4293 H   0  0  0  0  0  0  0  0  0  0  0  0
  1  2  1  0
  2  3  1  0
  3  4  1  0
  4  5  2  0
  4  6  1  0
  6  7  2  0
  7  8  1  0
  8  9  2  0
  9 10  1  0
 10 11  1  0
 11 12  1  0
 12 13  1  0
 13 14  1  0
 14 15  2  0
 15 16  1  0
 16 17  2  0
 17 18  1  0
 18 19  2  0
  9 20  1  0
 20  6  1  0
 19 14  1  0
  1 21  1  0
  1 22  1  0
  1 23  1  0
  2 24  1  0
  2 25  1  0
  7 26  1  0
 10 27  1  0
 11 28  1  0
 11 29  1  0
 12 30  1  0
 12 31  1  0
 15 32  1  0
 16 33  1  0
 17 34  1  0
 19 35  1  0
M  END
>  <Energy>  (813) 
333.51494667791604

>  <compound_id>  (813) 
87576

>  <target_id>  (813) 
1

>  <reference_id>  (813) 
123

>  <inspiration_ids>  (813) 
[123, 48]

>  <energy_score>  (813) 
283.663814974135

>  <distance_score>  (813) 
6.543377900271426

>  <path>  (813) 
/opt/xchem-fragalysis-2/maxwin/BulkDock/SCRATCH/511017/C87576-P123/C87576-P123.minimised.mol

>  <scratch_subdir>  (813) 
/opt/xchem-fragalysis-2/maxwin/BulkDock/SCRATCH/511017/C87576-P123

>  <fragmenstein_runtime>  (813) 
7.39023494720459

>  <fragmenstein_outcome>  (813) 
too moved

>  <fragmenstein_mode>  (813) 
expansion

>  <fragmenstein_error>  (813) 


$$$$
C87576-P48
     RDKit          3D

 35 36  0  0  0  0  0  0  0  0999 V2000
  -12.1701  -23.0734   26.9452 C   0  0  0  0  0  0  0  0  0  0  0  0
  -11.1982  -23.4318   28.0389 C   0  0  0  0  0  0  0  0  0  0  0  0
  -10.4600  -24.5398   27.5438 O   0  0  0  0  0  0  0  0  0  0  0  0
  -11.1229  -25.6918   27.7719 C   0  0  0  0  0  0  0  0  0  0  0  0
  -11.6529  -26.0046   28.8309 O   0  0  0  0  0  0  0  0  0  0  0  0
  -11.2186  -26.4680   26.5775 C   0  0  0  0  0  0  0  0  0  0  0  0
  -12.1338  -27.4303   26.3263 C   0  0  0  0  0  0  0  0  0  0  0  0
  -11.9985  -27.7962   25.0269 N   0  0  0  0  0  0  0  0  0  0  0  0
  -10.8614  -27.3090   24.5042 C   0  0  0  0  0  0  0  0  0  0  0  0
  -10.3274  -27.1096   22.7459 N   0  0  0  0  0  0  0  0  0  0  0  0
  -10.4189  -27.1982   20.7899 C   0  0  0  0  0  0  0  0  0  0  0  0
  -11.5566  -26.9297   19.0331 C   0  0  0  0  0  0  0  0  0  0  0  0
  -10.9284  -27.1726   17.7172 O   0  0  0  0  0  0  0  0  0  0  0  0
  -11.5422  -26.8742   16.5330 C   0  0  0  0  0  0  0  0  0  0  0  0
  -10.7168  -26.8969   15.4045 C   0  0  0  0  0  0  0  0  0  0  0  0
  -11.2259  -26.5778   14.1449 C   0  0  0  0  0  0  0  0  0  0  0  0
  -12.5660  -26.2522   14.0479 C   0  0  0  0  0  0  0  0  0  0  0  0
  -13.4051  -26.2355   15.1077 N   0  0  0  0  0  0  0  0  0  0  0  0
  -12.8710  -26.5471   16.3224 C   0  0  0  0  0  0  0  0  0  0  0  0
  -10.4544  -26.3082   25.4338 O   0  0  0  0  0  0  0  0  0  0  0  0
  -12.5429  -22.0733   27.1260 H   0  0  0  0  0  0  0  0  0  0  0  0
  -12.9838  -23.7950   26.8978 H   0  0  0  0  0  0  0  0  0  0  0  0
  -11.7308  -23.1305   25.9519 H   0  0  0  0  0  0  0  0  0  0  0  0
  -10.5157  -22.6070   28.2243 H   0  0  0  0  0  0  0  0  0  0  0  0
  -11.6983  -23.6358   28.9919 H   0  0  0  0  0  0  0  0  0  0  0  0
  -12.9171  -27.8097   26.9696 H   0  0  0  0  0  0  0  0  0  0  0  0
  -10.6498  -28.0177   22.6369 H   0  0  0  0  0  0  0  0  0  0  0  0
  -10.2369  -28.2097   21.1455 H   0  0  0  0  0  0  0  0  0  0  0  0
  -11.0721  -27.9874   20.5890 H   0  0  0  0  0  0  0  0  0  0  0  0
  -12.0807  -25.9707   18.9795 H   0  0  0  0  0  0  0  0  0  0  0  0
  -12.3601  -27.7042   19.0773 H   0  0  0  0  0  0  0  0  0  0  0  0
   -9.6585  -27.1311   15.5157 H   0  0  0  0  0  0  0  0  0  0  0  0
  -10.5830  -26.5728   13.2722 H   0  0  0  0  0  0  0  0  0  0  0  0
  -13.0131  -25.9887   13.0942 H   0  0  0  0  0  0  0  0  0  0  0  0
  -13.5830  -26.5129   17.1398 H   0  0  0  0  0  0  0  0  0  0  0  0
  1  2  1  0
  2  3  1  0
  3  4  1  0
  4  5  2  0
  4  6  1  0
  6  7  2  0
  7  8  1  0
  8  9  2  0
  9 10  1  0
 10 11  1  0
 11 12  1  0
 12 13  1  0
 13 14  1  0
 14 15  2  0
 15 16  1  0
 16 17  2  0
 17 18  1  0
 18 19  2  0
  9 20  1  0
 20  6  1  0
 19 14  1  0
  1 21  1  0
  1 22  1  0
  1 23  1  0
  2 24  1  0
  2 25  1  0
  7 26  1  0
 10 27  1  0
 11 28  1  0
 11 29  1  0
 12 30  1  0
 12 31  1  0
 15 32  1  0
 16 33  1  0
 17 34  1  0
 19 35  1  0
M  END
>  <Energy>  (814) 
462.09395893633956

>  <compound_id>  (814) 
87576

>  <target_id>  (814) 
1

>  <reference_id>  (814) 
48

>  <inspiration_ids>  (814) 
[123, 48]

>  <energy_score>  (814) 
412.2428272325469

>  <distance_score>  (814) 
6.178368848307232

>  <path>  (814) 
/opt/xchem-fragalysis-2/maxwin/BulkDock/SCRATCH/511017/C87576-P48/C87576-P48.minimised.mol

>  <scratch_subdir>  (814) 
/opt/xchem-fragalysis-2/maxwin/BulkDock/SCRATCH/511017/C87576-P48

>  <fragmenstein_runtime>  (814) 
3.916255474090576

>  <fragmenstein_outcome>  (814) 
too moved

>  <fragmenstein_mode>  (814) 
expansion

>  <fragmenstein_error>  (814) 


$$$$
C24286-P123
     RDKit          3D

 41 42  0  0  0  0  0  0  0  0999 V2000
  -15.9961  -24.4880   24.9032 C   0  0  0  0  0  0  0  0  0  0  0  0
  -16.3063  -25.3518   23.8212 O   0  0  0  0  0  0  0  0  0  0  0  0
  -15.1536  -25.9379   23.1591 C   0  0  0  0  0  0  0  0  0  0  0  0
  -15.5206  -26.3372   21.4535 C   0  0  0  0  0  0  0  0  0  0  0  0
  -16.5732  -27.0041   21.3883 O   0  0  0  0  0  0  0  0  0  0  0  0
  -14.4496  -25.7888   20.1732 N   0  0  0  0  0  0  0  0  0  0  0  0
  -14.4741  -26.1128   18.4503 C   0  0  0  0  0  0  0  0  0  0  0  0
  -15.5993  -26.5495   17.5934 C   0  0  0  0  0  0  0  0  0  0  0  0
  -15.3156  -26.6712   16.2997 N   0  0  0  0  0  0  0  0  0  0  0  0
  -13.9897  -26.4646   16.2407 N   0  0  0  0  0  0  0  0  0  0  0  0
  -13.3357  -26.6092   14.9197 C   0  0  0  0  0  0  0  0  0  0  0  0
  -13.5184  -28.0486   14.3910 C   0  0  0  0  0  0  0  0  0  0  0  0
  -14.0008  -25.6486   13.9085 C   0  0  0  0  0  0  0  0  0  0  0  0
  -11.8286  -26.3892   14.9883 C   0  0  0  0  0  0  0  0  0  0  0  0
  -11.0282  -27.0890   15.5896 O   0  0  0  0  0  0  0  0  0  0  0  0
  -11.3636  -25.3406   14.2815 O   0  0  0  0  0  0  0  0  0  0  0  0
  -13.4621  -26.1788   17.4903 C   0  0  0  0  0  0  0  0  0  0  0  0
  -14.7330  -27.0291   24.1627 C   0  0  0  0  0  0  0  0  0  0  0  0
  -13.7132  -26.7756   25.1163 C   0  0  0  0  0  0  0  0  0  0  0  0
  -13.4128  -27.6891   26.1224 C   0  0  0  0  0  0  0  0  0  0  0  0
  -14.1662  -28.8376   26.1857 C   0  0  0  0  0  0  0  0  0  0  0  0
  -15.1697  -29.1059   25.3240 N   0  0  0  0  0  0  0  0  0  0  0  0
  -15.4407  -28.2026   24.3426 C   0  0  0  0  0  0  0  0  0  0  0  0
  -16.9095  -23.9379   25.1387 H   0  0  0  0  0  0  0  0  0  0  0  0
  -15.6919  -25.0637   25.7775 H   0  0  0  0  0  0  0  0  0  0  0  0
  -15.2210  -23.7660   24.6287 H   0  0  0  0  0  0  0  0  0  0  0  0
  -14.3927  -25.1676   23.1571 H   0  0  0  0  0  0  0  0  0  0  0  0
  -13.7329  -25.2043   20.5549 H   0  0  0  0  0  0  0  0  0  0  0  0
  -16.6180  -26.7496   17.9060 H   0  0  0  0  0  0  0  0  0  0  0  0
  -14.5736  -28.2891   14.2176 H   0  0  0  0  0  0  0  0  0  0  0  0
  -13.1307  -28.7853   15.1052 H   0  0  0  0  0  0  0  0  0  0  0  0
  -12.9837  -28.1952   13.4450 H   0  0  0  0  0  0  0  0  0  0  0  0
  -13.5072  -25.6901   12.9304 H   0  0  0  0  0  0  0  0  0  0  0  0
  -13.9678  -24.6109   14.2548 H   0  0  0  0  0  0  0  0  0  0  0  0
  -15.0562  -25.8976   13.7463 H   0  0  0  0  0  0  0  0  0  0  0  0
  -10.3874  -25.3567   14.4058 H   0  0  0  0  0  0  0  0  0  0  0  0
  -12.3925  -26.1809   17.5769 H   0  0  0  0  0  0  0  0  0  0  0  0
  -13.1805  -25.8295   25.1283 H   0  0  0  0  0  0  0  0  0  0  0  0
  -12.6354  -27.4935   26.8525 H   0  0  0  0  0  0  0  0  0  0  0  0
  -13.9933  -29.5926   26.9467 H   0  0  0  0  0  0  0  0  0  0  0  0
  -16.2920  -28.4548   23.7121 H   0  0  0  0  0  0  0  0  0  0  0  0
  1  2  1  0
  2  3  1  0
  3  4  1  0
  4  5  2  0
  4  6  1  0
  6  7  1  0
  7  8  1  0
  8  9  2  0
  9 10  1  0
 10 11  1  0
 11 12  1  0
 11 13  1  0
 11 14  1  0
 14 15  2  0
 14 16  1  0
 10 17  1  0
  3 18  1  0
 18 19  2  0
 19 20  1  0
 20 21  2  0
 21 22  1  0
 22 23  2  0
 17  7  2  0
 23 18  1  0
  1 24  1  0
  1 25  1  0
  1 26  1  0
  3 27  1  0
  6 28  1  0
  8 29  1  0
 12 30  1  0
 12 31  1  0
 12 32  1  0
 13 33  1  0
 13 34  1  0
 13 35  1  0
 16 36  1  0
 17 37  1  0
 19 38  1  0
 20 39  1  0
 21 40  1  0
 23 41  1  0
M  END
>  <Energy>  (815) 
192.75414560664964

>  <compound_id>  (815) 
24286

>  <target_id>  (815) 
1

>  <reference_id>  (815) 
123

>  <inspiration_ids>  (815) 
[123, 48]

>  <energy_score>  (815) 
89.18486557601457

>  <distance_score>  (815) 
7.514619583996665

>  <path>  (815) 
/opt/xchem-fragalysis-2/maxwin/BulkDock/SCRATCH/511017/C24286-P123/C24286-P123.minimised.mol

>  <scratch_subdir>  (815) 
/opt/xchem-fragalysis-2/maxwin/BulkDock/SCRATCH/511017/C24286-P123

>  <fragmenstein_runtime>  (815) 
8.323094606399536

>  <fragmenstein_outcome>  (815) 
too moved

>  <fragmenstein_mode>  (815) 
expansion

>  <fragmenstein_error>  (815) 


$$$$
C24286-P48
     RDKit          3D

 41 42  0  0  0  0  0  0  0  0999 V2000
  -16.1317  -25.8730   24.7484 C   0  0  0  0  0  0  0  0  0  0  0  0
  -14.9613  -26.5770   24.3455 O   0  0  0  0  0  0  0  0  0  0  0  0
  -14.9939  -27.9880   24.6388 C   0  0  0  0  0  0  0  0  0  0  0  0
  -14.5462  -28.8191   23.3324 C   0  0  0  0  0  0  0  0  0  0  0  0
  -13.7848  -29.7416   23.4419 O   0  0  0  0  0  0  0  0  0  0  0  0
  -15.1488  -28.2123   22.1369 N   0  0  0  0  0  0  0  0  0  0  0  0
  -14.9437  -28.4667   20.7813 C   0  0  0  0  0  0  0  0  0  0  0  0
  -14.0968  -29.3730   20.0976 C   0  0  0  0  0  0  0  0  0  0  0  0
  -14.0515  -29.1680   18.7741 N   0  0  0  0  0  0  0  0  0  0  0  0
  -14.9089  -28.1452   18.5702 N   0  0  0  0  0  0  0  0  0  0  0  0
  -14.9455  -27.4529   17.2666 C   0  0  0  0  0  0  0  0  0  0  0  0
  -14.5693  -28.3739   16.0848 C   0  0  0  0  0  0  0  0  0  0  0  0
  -13.9374  -26.2906   17.3246 C   0  0  0  0  0  0  0  0  0  0  0  0
  -16.3615  -26.9546   16.9836 C   0  0  0  0  0  0  0  0  0  0  0  0
  -17.4077  -27.5194   17.2645 O   0  0  0  0  0  0  0  0  0  0  0  0
  -16.4147  -25.7834   16.3117 O   0  0  0  0  0  0  0  0  0  0  0  0
  -15.5040  -27.7390   19.7490 C   0  0  0  0  0  0  0  0  0  0  0  0
  -14.1391  -28.1018   25.9142 C   0  0  0  0  0  0  0  0  0  0  0  0
  -12.7787  -28.4239   25.9527 C   0  0  0  0  0  0  0  0  0  0  0  0
  -12.0547  -28.3177   27.1453 C   0  0  0  0  0  0  0  0  0  0  0  0
  -12.7008  -27.8623   28.2821 C   0  0  0  0  0  0  0  0  0  0  0  0
  -14.0097  -27.5477   28.3032 N   0  0  0  0  0  0  0  0  0  0  0  0
  -14.6929  -27.7175   27.1436 C   0  0  0  0  0  0  0  0  0  0  0  0
  -16.4453  -26.1173   25.7631 H   0  0  0  0  0  0  0  0  0  0  0  0
  -16.9474  -26.1001   24.0556 H   0  0  0  0  0  0  0  0  0  0  0  0
  -15.9260  -24.8010   24.7057 H   0  0  0  0  0  0  0  0  0  0  0  0
  -16.0168  -28.3264   24.8558 H   0  0  0  0  0  0  0  0  0  0  0  0
  -15.8108  -27.5007   22.4236 H   0  0  0  0  0  0  0  0  0  0  0  0
  -13.4720  -30.1487   20.5226 H   0  0  0  0  0  0  0  0  0  0  0  0
  -14.6717  -27.8511   15.1265 H   0  0  0  0  0  0  0  0  0  0  0  0
  -15.2231  -29.2536   16.0484 H   0  0  0  0  0  0  0  0  0  0  0  0
  -13.5355  -28.7295   16.1608 H   0  0  0  0  0  0  0  0  0  0  0  0
  -13.8587  -25.7743   16.3611 H   0  0  0  0  0  0  0  0  0  0  0  0
  -12.9344  -26.6465   17.5888 H   0  0  0  0  0  0  0  0  0  0  0  0
  -14.2295  -25.5440   18.0716 H   0  0  0  0  0  0  0  0  0  0  0  0
  -17.3745  -25.6264   16.1686 H   0  0  0  0  0  0  0  0  0  0  0  0
  -16.2230  -26.9335   19.7554 H   0  0  0  0  0  0  0  0  0  0  0  0
  -12.2570  -28.7798   25.0682 H   0  0  0  0  0  0  0  0  0  0  0  0
  -11.0045  -28.5867   27.1853 H   0  0  0  0  0  0  0  0  0  0  0  0
  -12.1753  -27.7515   29.2264 H   0  0  0  0  0  0  0  0  0  0  0  0
  -15.7539  -27.5000   27.2397 H   0  0  0  0  0  0  0  0  0  0  0  0
  1  2  1  0
  2  3  1  0
  3  4  1  0
  4  5  2  0
  4  6  1  0
  6  7  1  0
  7  8  1  0
  8  9  2  0
  9 10  1  0
 10 11  1  0
 11 12  1  0
 11 13  1  0
 11 14  1  0
 14 15  2  0
 14 16  1  0
 10 17  1  0
  3 18  1  0
 18 19  2  0
 19 20  1  0
 20 21  2  0
 21 22  1  0
 22 23  2  0
 17  7  2  0
 23 18  1  0
  1 24  1  0
  1 25  1  0
  1 26  1  0
  3 27  1  0
  6 28  1  0
  8 29  1  0
 12 30  1  0
 12 31  1  0
 12 32  1  0
 13 33  1  0
 13 34  1  0
 13 35  1  0
 16 36  1  0
 17 37  1  0
 19 38  1  0
 20 39  1  0
 21 40  1  0
 23 41  1  0
M  END
>  <Energy>  (816) 
78.018077827158052

>  <compound_id>  (816) 
24286

>  <target_id>  (816) 
1

>  <reference_id>  (816) 
48

>  <inspiration_ids>  (816) 
[123, 48]

>  <energy_score>  (816) 
-25.551202203477374

>  <distance_score>  (816) 
8.453184458182522

>  <path>  (816) 
/opt/xchem-fragalysis-2/maxwin/BulkDock/SCRATCH/511017/C24286-P48/C24286-P48.minimised.mol

>  <scratch_subdir>  (816) 
/opt/xchem-fragalysis-2/maxwin/BulkDock/SCRATCH/511017/C24286-P48

>  <fragmenstein_runtime>  (816) 
7.122048854827881

>  <fragmenstein_outcome>  (816) 
too moved

>  <fragmenstein_mode>  (816) 
expansion

>  <fragmenstein_error>  (816) 


$$$$
C24290-P123
     RDKit          3D

 39 40  0  0  0  0  0  0  0  0999 V2000
   -7.5168  -19.5929   20.1998 C   0  0  0  0  0  0  0  0  0  0  0  0
   -8.9990  -20.5588   19.3031 C   0  0  0  0  0  0  0  0  0  0  0  0
   -8.9174  -20.8239   17.4630 C   0  0  0  0  0  0  0  0  0  0  0  0
   -9.6358  -21.6953   15.9883 N   0  0  0  0  0  0  0  0  0  0  0  0
   -9.0183  -22.2451   14.8206 C   0  0  0  0  0  0  0  0  0  0  0  0
   -7.8911  -22.2152   14.4591 O   0  0  0  0  0  0  0  0  0  0  0  0
   -9.9821  -23.1231   13.9248 C   0  0  0  0  0  0  0  0  0  0  0  0
  -10.5716  -22.5306   12.7789 O   0  0  0  0  0  0  0  0  0  0  0  0
  -10.9377  -23.4606   11.8417 C   0  0  0  0  0  0  0  0  0  0  0  0
  -10.3464  -23.4029   10.5852 C   0  0  0  0  0  0  0  0  0  0  0  0
  -10.7598  -24.2822    9.5858 C   0  0  0  0  0  0  0  0  0  0  0  0
  -11.7746  -25.1782    9.8805 C   0  0  0  0  0  0  0  0  0  0  0  0
  -12.3889  -25.2459   11.0829 N   0  0  0  0  0  0  0  0  0  0  0  0
  -11.9539  -24.3847   12.0375 C   0  0  0  0  0  0  0  0  0  0  0  0
  -10.0590  -21.3646   20.3412 N   0  0  0  0  0  0  0  0  0  0  0  0
   -9.9646  -21.6593   21.7480 C   0  0  0  0  0  0  0  0  0  0  0  0
   -9.0823  -21.4822   22.5110 O   0  0  0  0  0  0  0  0  0  0  0  0
  -11.1769  -22.1797   22.4689 C   0  0  0  0  0  0  0  0  0  0  0  0
  -12.5017  -22.2821   22.1026 C   0  0  0  0  0  0  0  0  0  0  0  0
  -13.2456  -22.4957   23.2524 C   0  0  0  0  0  0  0  0  0  0  0  0
  -12.3175  -22.6147   24.2196 N   0  0  0  0  0  0  0  0  0  0  0  0
  -11.1241  -22.8113   23.6658 N   0  0  0  0  0  0  0  0  0  0  0  0
   -7.1391  -18.7668   19.5651 H   0  0  0  0  0  0  0  0  0  0  0  0
   -6.5228  -20.0802   20.2233 H   0  0  0  0  0  0  0  0  0  0  0  0
   -7.6203  -19.1960   21.2131 H   0  0  0  0  0  0  0  0  0  0  0  0
   -8.1285  -20.1097   18.7954 H   0  0  0  0  0  0  0  0  0  0  0  0
   -7.8299  -20.8715   17.3552 H   0  0  0  0  0  0  0  0  0  0  0  0
   -9.3114  -19.8454   17.2674 H   0  0  0  0  0  0  0  0  0  0  0  0
  -10.5555  -21.8281   15.9326 H   0  0  0  0  0  0  0  0  0  0  0  0
  -10.7290  -23.6120   14.5374 H   0  0  0  0  0  0  0  0  0  0  0  0
   -9.4006  -23.9870   13.5922 H   0  0  0  0  0  0  0  0  0  0  0  0
   -9.5728  -22.6642   10.3950 H   0  0  0  0  0  0  0  0  0  0  0  0
  -10.3048  -24.2618    8.6027 H   0  0  0  0  0  0  0  0  0  0  0  0
  -12.1335  -25.8837    9.1365 H   0  0  0  0  0  0  0  0  0  0  0  0
  -12.4842  -24.4439   12.9817 H   0  0  0  0  0  0  0  0  0  0  0  0
  -10.9891  -21.5742   20.0262 H   0  0  0  0  0  0  0  0  0  0  0  0
  -12.7906  -22.2720   21.0704 H   0  0  0  0  0  0  0  0  0  0  0  0
  -14.2861  -22.5958   23.4981 H   0  0  0  0  0  0  0  0  0  0  0  0
  -12.4339  -22.6550   25.2313 H   0  0  0  0  0  0  0  0  0  0  0  0
  1  2  1  0
  2  3  1  0
  3  4  1  0
  4  5  1  0
  5  6  2  0
  5  7  1  0
  7  8  1  0
  8  9  1  0
  9 10  2  0
 10 11  1  0
 11 12  2  0
 12 13  1  0
 13 14  2  0
  2 15  1  0
 15 16  1  0
 16 17  2  0
 16 18  1  0
 18 19  1  0
 19 20  2  0
 20 21  1  0
 21 22  1  0
 14  9  1  0
 22 18  2  0
  1 23  1  0
  1 24  1  0
  1 25  1  0
  2 26  1  0
  3 27  1  0
  3 28  1  0
  4 29  1  0
  7 30  1  0
  7 31  1  0
 10 32  1  0
 11 33  1  0
 12 34  1  0
 14 35  1  0
 15 36  1  0
 19 37  1  0
 20 38  1  0
 21 39  1  0
M  END
>  <Energy>  (817) 
438.42851508965987

>  <compound_id>  (817) 
24290

>  <target_id>  (817) 
1

>  <reference_id>  (817) 
123

>  <inspiration_ids>  (817) 
[123, 48]

>  <energy_score>  (817) 
312.8295001939134

>  <distance_score>  (817) 
6.355364017209543

>  <path>  (817) 
/opt/xchem-fragalysis-2/maxwin/BulkDock/SCRATCH/511017/C24290-P123/C24290-P123.minimised.mol

>  <scratch_subdir>  (817) 
/opt/xchem-fragalysis-2/maxwin/BulkDock/SCRATCH/511017/C24290-P123

>  <fragmenstein_runtime>  (817) 
15.163764476776123

>  <fragmenstein_outcome>  (817) 
too moved

>  <fragmenstein_mode>  (817) 
expansion

>  <fragmenstein_error>  (817) 


$$$$
C24290-P48
     RDKit          3D

 39 40  0  0  0  0  0  0  0  0999 V2000
   -7.5916  -19.4851   20.2711 C   0  0  0  0  0  0  0  0  0  0  0  0
   -9.1188  -20.5707   19.6746 C   0  0  0  0  0  0  0  0  0  0  0  0
   -8.9467  -20.6914   17.7645 C   0  0  0  0  0  0  0  0  0  0  0  0
   -9.4287  -21.7995   16.3433 N   0  0  0  0  0  0  0  0  0  0  0  0
   -9.9723  -21.4889   15.0067 C   0  0  0  0  0  0  0  0  0  0  0  0
  -10.3235  -20.4373   14.5226 O   0  0  0  0  0  0  0  0  0  0  0  0
  -10.0104  -22.6911   13.9905 C   0  0  0  0  0  0  0  0  0  0  0  0
  -10.5414  -23.9887   14.2167 O   0  0  0  0  0  0  0  0  0  0  0  0
  -10.9407  -24.5447   13.0219 C   0  0  0  0  0  0  0  0  0  0  0  0
  -10.1342  -25.4721   12.3729 C   0  0  0  0  0  0  0  0  0  0  0  0
  -10.5452  -25.9966   11.1454 C   0  0  0  0  0  0  0  0  0  0  0  0
  -11.7611  -25.5835   10.6205 C   0  0  0  0  0  0  0  0  0  0  0  0
  -12.5799  -24.7041   11.2374 N   0  0  0  0  0  0  0  0  0  0  0  0
  -12.1554  -24.2148   12.4308 C   0  0  0  0  0  0  0  0  0  0  0  0
  -10.4261  -21.2127   20.7536 N   0  0  0  0  0  0  0  0  0  0  0  0
  -10.3755  -21.6742   22.1442 C   0  0  0  0  0  0  0  0  0  0  0  0
   -9.4472  -21.8137   22.8712 O   0  0  0  0  0  0  0  0  0  0  0  0
  -11.6581  -21.9545   22.8998 C   0  0  0  0  0  0  0  0  0  0  0  0
  -11.5967  -22.6587   24.1232 C   0  0  0  0  0  0  0  0  0  0  0  0
  -12.7557  -22.6749   24.8297 C   0  0  0  0  0  0  0  0  0  0  0  0
  -13.5301  -22.0029   23.9872 N   0  0  0  0  0  0  0  0  0  0  0  0
  -12.9507  -21.7600   22.7886 N   0  0  0  0  0  0  0  0  0  0  0  0
   -6.5650  -19.8849   20.3019 H   0  0  0  0  0  0  0  0  0  0  0  0
   -7.2375  -18.8395   19.4445 H   0  0  0  0  0  0  0  0  0  0  0  0
   -7.6808  -18.9835   21.2416 H   0  0  0  0  0  0  0  0  0  0  0  0
   -8.8140  -21.3631   20.2645 H   0  0  0  0  0  0  0  0  0  0  0  0
   -9.3188  -19.7343   17.4740 H   0  0  0  0  0  0  0  0  0  0  0  0
   -7.8649  -20.6753   17.7052 H   0  0  0  0  0  0  0  0  0  0  0  0
   -9.1664  -22.7655   16.3732 H   0  0  0  0  0  0  0  0  0  0  0  0
  -10.5206  -22.2476   13.1190 H   0  0  0  0  0  0  0  0  0  0  0  0
   -8.9764  -22.7941   13.6562 H   0  0  0  0  0  0  0  0  0  0  0  0
   -9.1900  -25.7792   12.8109 H   0  0  0  0  0  0  0  0  0  0  0  0
   -9.9282  -26.7113   10.6112 H   0  0  0  0  0  0  0  0  0  0  0  0
  -12.1171  -25.9612    9.6660 H   0  0  0  0  0  0  0  0  0  0  0  0
  -12.8328  -23.5135   12.9081 H   0  0  0  0  0  0  0  0  0  0  0  0
  -11.4024  -21.1344   20.4640 H   0  0  0  0  0  0  0  0  0  0  0  0
  -10.7228  -23.2134   24.4260 H   0  0  0  0  0  0  0  0  0  0  0  0
  -13.0506  -23.0634   25.7929 H   0  0  0  0  0  0  0  0  0  0  0  0
  -14.4592  -21.6494   24.1938 H   0  0  0  0  0  0  0  0  0  0  0  0
  1  2  1  0
  2  3  1  0
  3  4  1  0
  4  5  1  0
  5  6  2  0
  5  7  1  0
  7  8  1  0
  8  9  1  0
  9 10  2  0
 10 11  1  0
 11 12  2  0
 12 13  1  0
 13 14  2  0
  2 15  1  0
 15 16  1  0
 16 17  2  0
 16 18  1  0
 18 19  1  0
 19 20  2  0
 20 21  1  0
 21 22  1  0
 14  9  1  0
 22 18  2  0
  1 23  1  0
  1 24  1  0
  1 25  1  0
  2 26  1  0
  3 27  1  0
  3 28  1  0
  4 29  1  0
  7 30  1  0
  7 31  1  0
 10 32  1  0
 11 33  1  0
 12 34  1  0
 14 35  1  0
 15 36  1  0
 19 37  1  0
 20 38  1  0
 21 39  1  0
M  END
>  <Energy>  (818) 
361.44809150185762

>  <compound_id>  (818) 
24290

>  <target_id>  (818) 
1

>  <reference_id>  (818) 
48

>  <inspiration_ids>  (818) 
[123, 48]

>  <energy_score>  (818) 
235.84907660610236

>  <distance_score>  (818) 
6.136271642752594

>  <path>  (818) 
/opt/xchem-fragalysis-2/maxwin/BulkDock/SCRATCH/511017/C24290-P48/C24290-P48.minimised.mol

>  <scratch_subdir>  (818) 
/opt/xchem-fragalysis-2/maxwin/BulkDock/SCRATCH/511017/C24290-P48

>  <fragmenstein_runtime>  (818) 
10.659834384918213

>  <fragmenstein_outcome>  (818) 
too moved

>  <fragmenstein_mode>  (818) 
expansion

>  <fragmenstein_error>  (818) 


$$$$
C24291-P123
     RDKit          3D

 42 43  0  0  0  0  0  0  0  0999 V2000
   -7.7957  -20.1990   18.1660 C   0  0  0  0  0  0  0  0  0  0  0  0
   -9.0646  -21.0587   18.2376 C   0  0  0  0  0  0  0  0  0  0  0  0
   -9.5419  -21.5842   16.2686 C   0  0  0  0  0  0  0  0  0  0  0  0
   -9.8695  -22.5616   15.0124 N   0  0  0  0  0  0  0  0  0  0  0  0
  -10.2344  -22.2596   13.6378 C   0  0  0  0  0  0  0  0  0  0  0  0
  -10.4633  -21.2131   13.1019 O   0  0  0  0  0  0  0  0  0  0  0  0
  -10.4272  -23.5878   12.8487 C   0  0  0  0  0  0  0  0  0  0  0  0
  -10.3811  -23.4059   11.4380 O   0  0  0  0  0  0  0  0  0  0  0  0
  -10.9798  -24.3223   10.6291 C   0  0  0  0  0  0  0  0  0  0  0  0
  -10.9074  -24.0448    9.2641 C   0  0  0  0  0  0  0  0  0  0  0  0
  -11.5054  -24.8969    8.3383 C   0  0  0  0  0  0  0  0  0  0  0  0
  -12.1672  -26.0127    8.8156 C   0  0  0  0  0  0  0  0  0  0  0  0
  -12.2562  -26.3220   10.1269 N   0  0  0  0  0  0  0  0  0  0  0  0
  -11.6545  -25.4741   11.0013 C   0  0  0  0  0  0  0  0  0  0  0  0
  -10.0838  -21.7142   19.8300 N   0  0  0  0  0  0  0  0  0  0  0  0
   -9.8249  -21.6023   21.2959 C   0  0  0  0  0  0  0  0  0  0  0  0
   -8.8920  -21.1587   21.8914 O   0  0  0  0  0  0  0  0  0  0  0  0
  -10.9737  -22.0258   22.1990 C   0  0  0  0  0  0  0  0  0  0  0  0
  -12.3195  -22.1901   21.9274 C   0  0  0  0  0  0  0  0  0  0  0  0
  -12.9909  -22.4539   23.1091 C   0  0  0  0  0  0  0  0  0  0  0  0
  -12.0073  -22.7045   23.9937 N   0  0  0  0  0  0  0  0  0  0  0  0
  -12.1532  -23.3961   25.2624 C   0  0  0  0  0  0  0  0  0  0  0  0
  -10.8016  -22.5857   23.4114 N   0  0  0  0  0  0  0  0  0  0  0  0
   -7.9138  -19.3236   17.5734 H   0  0  0  0  0  0  0  0  0  0  0  0
   -7.3256  -19.6905   19.0478 H   0  0  0  0  0  0  0  0  0  0  0  0
   -7.0924  -20.9189   17.7575 H   0  0  0  0  0  0  0  0  0  0  0  0
   -9.5796  -20.1078   18.2092 H   0  0  0  0  0  0  0  0  0  0  0  0
   -8.6576  -22.0313   15.7430 H   0  0  0  0  0  0  0  0  0  0  0  0
   -9.8458  -22.4548   16.6971 H   0  0  0  0  0  0  0  0  0  0  0  0
   -9.6705  -23.5463   15.0912 H   0  0  0  0  0  0  0  0  0  0  0  0
   -9.6616  -24.3151   13.1298 H   0  0  0  0  0  0  0  0  0  0  0  0
  -11.4110  -23.9551   13.1639 H   0  0  0  0  0  0  0  0  0  0  0  0
  -10.3843  -23.1529    8.9277 H   0  0  0  0  0  0  0  0  0  0  0  0
  -11.4577  -24.6911    7.2754 H   0  0  0  0  0  0  0  0  0  0  0  0
  -12.6546  -26.7093    8.1396 H   0  0  0  0  0  0  0  0  0  0  0  0
  -11.7494  -25.7842   12.0354 H   0  0  0  0  0  0  0  0  0  0  0  0
  -11.0007  -22.0599   19.6886 H   0  0  0  0  0  0  0  0  0  0  0  0
  -12.6926  -22.2094   20.9244 H   0  0  0  0  0  0  0  0  0  0  0  0
  -14.0190  -22.6547   23.3558 H   0  0  0  0  0  0  0  0  0  0  0  0
  -11.9780  -22.7072   26.0883 H   0  0  0  0  0  0  0  0  0  0  0  0
  -11.4246  -24.2111   25.3026 H   0  0  0  0  0  0  0  0  0  0  0  0
  -13.1622  -23.8107   25.3314 H   0  0  0  0  0  0  0  0  0  0  0  0
  1  2  1  0
  2  3  1  0
  3  4  1  0
  4  5  1  0
  5  6  2  0
  5  7  1  0
  7  8  1  0
  8  9  1  0
  9 10  2  0
 10 11  1  0
 11 12  2  0
 12 13  1  0
 13 14  2  0
  2 15  1  0
 15 16  1  0
 16 17  2  0
 16 18  1  0
 18 19  1  0
 19 20  2  0
 20 21  1  0
 21 22  1  0
 21 23  1  0
 14  9  1  0
 23 18  2  0
  1 24  1  0
  1 25  1  0
  1 26  1  0
  2 27  1  0
  3 28  1  0
  3 29  1  0
  4 30  1  0
  7 31  1  0
  7 32  1  0
 10 33  1  0
 11 34  1  0
 12 35  1  0
 14 36  1  0
 15 37  1  0
 19 38  1  0
 20 39  1  0
 22 40  1  0
 22 41  1  0
 22 42  1  0
M  END
>  <Energy>  (819) 
426.16496489545199

>  <compound_id>  (819) 
24291

>  <target_id>  (819) 
1

>  <reference_id>  (819) 
123

>  <inspiration_ids>  (819) 
[123, 48]

>  <energy_score>  (819) 
299.73219111631136

>  <distance_score>  (819) 
6.100962114019534

>  <path>  (819) 
/opt/xchem-fragalysis-2/maxwin/BulkDock/SCRATCH/511017/C24291-P123/C24291-P123.minimised.mol

>  <scratch_subdir>  (819) 
/opt/xchem-fragalysis-2/maxwin/BulkDock/SCRATCH/511017/C24291-P123

>  <fragmenstein_runtime>  (819) 
16.67964196205139

>  <fragmenstein_outcome>  (819) 
too moved

>  <fragmenstein_mode>  (819) 
expansion

>  <fragmenstein_error>  (819) 


$$$$
C24291-P48
     RDKit          3D

 42 43  0  0  0  0  0  0  0  0999 V2000
  -11.3742  -20.8213   20.3326 C   0  0  0  0  0  0  0  0  0  0  0  0
   -9.6553  -21.2305   20.1718 C   0  0  0  0  0  0  0  0  0  0  0  0
   -8.9733  -20.9153   18.2029 C   0  0  0  0  0  0  0  0  0  0  0  0
   -9.6038  -21.5516   16.4645 N   0  0  0  0  0  0  0  0  0  0  0  0
   -8.9466  -22.3301   15.4266 C   0  0  0  0  0  0  0  0  0  0  0  0
   -7.8246  -22.7096   15.3432 O   0  0  0  0  0  0  0  0  0  0  0  0
   -9.8167  -22.9162   14.2051 C   0  0  0  0  0  0  0  0  0  0  0  0
  -11.1337  -22.9876   13.7341 O   0  0  0  0  0  0  0  0  0  0  0  0
  -11.4016  -23.8782   12.7194 C   0  0  0  0  0  0  0  0  0  0  0  0
  -10.4830  -24.6540   12.0129 C   0  0  0  0  0  0  0  0  0  0  0  0
  -10.9201  -25.4888   10.9782 C   0  0  0  0  0  0  0  0  0  0  0  0
  -12.2699  -25.5169   10.6725 C   0  0  0  0  0  0  0  0  0  0  0  0
  -13.1943  -24.7992   11.3412 N   0  0  0  0  0  0  0  0  0  0  0  0
  -12.7360  -24.0152   12.3522 C   0  0  0  0  0  0  0  0  0  0  0  0
  -10.4747  -21.8645   21.5590 N   0  0  0  0  0  0  0  0  0  0  0  0
  -10.0360  -22.1229   22.8286 C   0  0  0  0  0  0  0  0  0  0  0  0
   -8.9606  -22.0593   23.2957 O   0  0  0  0  0  0  0  0  0  0  0  0
  -11.3079  -22.4583   23.7484 C   0  0  0  0  0  0  0  0  0  0  0  0
  -12.6903  -22.2005   23.6477 C   0  0  0  0  0  0  0  0  0  0  0  0
  -13.3286  -22.7894   24.7267 C   0  0  0  0  0  0  0  0  0  0  0  0
  -12.3082  -23.0667   25.5733 N   0  0  0  0  0  0  0  0  0  0  0  0
  -12.2344  -23.3909   26.9680 C   0  0  0  0  0  0  0  0  0  0  0  0
  -11.1998  -23.2623   24.8617 N   0  0  0  0  0  0  0  0  0  0  0  0
  -11.7736  -20.2224   19.5366 H   0  0  0  0  0  0  0  0  0  0  0  0
  -11.9788  -21.7375   20.1107 H   0  0  0  0  0  0  0  0  0  0  0  0
  -11.6653  -20.3301   21.2780 H   0  0  0  0  0  0  0  0  0  0  0  0
   -9.8804  -22.2107   19.8677 H   0  0  0  0  0  0  0  0  0  0  0  0
   -9.1703  -19.8267   18.1364 H   0  0  0  0  0  0  0  0  0  0  0  0
   -7.9065  -20.8250   18.0015 H   0  0  0  0  0  0  0  0  0  0  0  0
  -10.4945  -21.3488   16.1810 H   0  0  0  0  0  0  0  0  0  0  0  0
   -9.5823  -23.9773   14.3750 H   0  0  0  0  0  0  0  0  0  0  0  0
   -9.2312  -22.5559   13.3456 H   0  0  0  0  0  0  0  0  0  0  0  0
   -9.4224  -24.6366   12.2420 H   0  0  0  0  0  0  0  0  0  0  0  0
  -10.2156  -26.0958   10.4184 H   0  0  0  0  0  0  0  0  0  0  0  0
  -12.6518  -26.1392    9.8685 H   0  0  0  0  0  0  0  0  0  0  0  0
  -13.5066  -23.4634   12.8822 H   0  0  0  0  0  0  0  0  0  0  0  0
  -11.4471  -22.1108   21.4998 H   0  0  0  0  0  0  0  0  0  0  0  0
  -13.1413  -21.7304   22.8242 H   0  0  0  0  0  0  0  0  0  0  0  0
  -14.3688  -22.8926   24.9977 H   0  0  0  0  0  0  0  0  0  0  0  0
  -12.4565  -22.4860   27.5298 H   0  0  0  0  0  0  0  0  0  0  0  0
  -11.2165  -23.7040   27.2234 H   0  0  0  0  0  0  0  0  0  0  0  0
  -12.8940  -24.2304   27.1639 H   0  0  0  0  0  0  0  0  0  0  0  0
  1  2  1  0
  2  3  1  0
  3  4  1  0
  4  5  1  0
  5  6  2  0
  5  7  1  0
  7  8  1  0
  8  9  1  0
  9 10  2  0
 10 11  1  0
 11 12  2  0
 12 13  1  0
 13 14  2  0
  2 15  1  0
 15 16  1  0
 16 17  2  0
 16 18  1  0
 18 19  1  0
 19 20  2  0
 20 21  1  0
 21 22  1  0
 21 23  1  0
 14  9  1  0
 23 18  2  0
  1 24  1  0
  1 25  1  0
  1 26  1  0
  2 27  1  0
  3 28  1  0
  3 29  1  0
  4 30  1  0
  7 31  1  0
  7 32  1  0
 10 33  1  0
 11 34  1  0
 12 35  1  0
 14 36  1  0
 15 37  1  0
 19 38  1  0
 20 39  1  0
 22 40  1  0
 22 41  1  0
 22 42  1  0
M  END
>  <Energy>  (820) 
496.55544654168204

>  <compound_id>  (820) 
24291

>  <target_id>  (820) 
1

>  <reference_id>  (820) 
48

>  <inspiration_ids>  (820) 
[123, 48]

>  <energy_score>  (820) 
370.1226727625388

>  <distance_score>  (820) 
5.858822844520576

>  <path>  (820) 
/opt/xchem-fragalysis-2/maxwin/BulkDock/SCRATCH/511017/C24291-P48/C24291-P48.minimised.mol

>  <scratch_subdir>  (820) 
/opt/xchem-fragalysis-2/maxwin/BulkDock/SCRATCH/511017/C24291-P48

>  <fragmenstein_runtime>  (820) 
13.591442584991455

>  <fragmenstein_outcome>  (820) 
too moved

>  <fragmenstein_mode>  (820) 
expansion

>  <fragmenstein_error>  (820) 


$$$$
C24294-P123
     RDKit          3D

 42 43  0  0  0  0  0  0  0  0999 V2000
  -10.5313  -24.0833   24.5538 C   0  0  0  0  0  0  0  0  0  0  0  0
  -11.2619  -23.0518   23.7424 C   0  0  0  0  0  0  0  0  0  0  0  0
  -12.5288  -22.8569   24.2195 C   0  0  0  0  0  0  0  0  0  0  0  0
  -13.0685  -22.0120   23.3669 N   0  0  0  0  0  0  0  0  0  0  0  0
  -12.3225  -21.6567   22.3119 N   0  0  0  0  0  0  0  0  0  0  0  0
  -11.0982  -22.1514   22.4889 C   0  0  0  0  0  0  0  0  0  0  0  0
   -9.8871  -21.6515   21.4441 C   0  0  0  0  0  0  0  0  0  0  0  0
   -8.9371  -21.2385   22.0511 O   0  0  0  0  0  0  0  0  0  0  0  0
  -10.1587  -21.7321   19.8755 N   0  0  0  0  0  0  0  0  0  0  0  0
   -9.1018  -21.0622   18.2792 C   0  0  0  0  0  0  0  0  0  0  0  0
   -8.7299  -19.5920   18.4322 C   0  0  0  0  0  0  0  0  0  0  0  0
   -9.5757  -21.5510   16.2926 C   0  0  0  0  0  0  0  0  0  0  0  0
   -9.8519  -22.6195   15.0155 N   0  0  0  0  0  0  0  0  0  0  0  0
  -10.2058  -22.3742   13.6161 C   0  0  0  0  0  0  0  0  0  0  0  0
  -10.4660  -21.3552   13.0443 O   0  0  0  0  0  0  0  0  0  0  0  0
  -10.2780  -23.7862   12.8813 C   0  0  0  0  0  0  0  0  0  0  0  0
  -10.9957  -24.7240   13.7004 O   0  0  0  0  0  0  0  0  0  0  0  0
  -10.8072  -23.8549   11.4558 C   0  0  0  0  0  0  0  0  0  0  0  0
  -11.6637  -24.8824   11.0193 C   0  0  0  0  0  0  0  0  0  0  0  0
  -12.0473  -24.9752    9.6817 C   0  0  0  0  0  0  0  0  0  0  0  0
  -11.5539  -24.0376    8.7966 C   0  0  0  0  0  0  0  0  0  0  0  0
  -10.7163  -23.0454    9.1584 N   0  0  0  0  0  0  0  0  0  0  0  0
  -10.3452  -22.9908   10.4679 C   0  0  0  0  0  0  0  0  0  0  0  0
  -11.0432  -25.0476   24.6089 H   0  0  0  0  0  0  0  0  0  0  0  0
   -9.5373  -24.2347   24.1428 H   0  0  0  0  0  0  0  0  0  0  0  0
  -10.5342  -23.8670   25.6299 H   0  0  0  0  0  0  0  0  0  0  0  0
  -13.0556  -23.2615   25.0720 H   0  0  0  0  0  0  0  0  0  0  0  0
  -14.0021  -21.6504   23.4727 H   0  0  0  0  0  0  0  0  0  0  0  0
  -11.0921  -22.0545   19.7167 H   0  0  0  0  0  0  0  0  0  0  0  0
   -8.0747  -21.2340   18.0866 H   0  0  0  0  0  0  0  0  0  0  0  0
   -9.4895  -18.9100   18.0832 H   0  0  0  0  0  0  0  0  0  0  0  0
   -7.8672  -19.2671   17.8837 H   0  0  0  0  0  0  0  0  0  0  0  0
   -8.2932  -19.4433   19.4176 H   0  0  0  0  0  0  0  0  0  0  0  0
   -8.6998  -21.9995   15.7804 H   0  0  0  0  0  0  0  0  0  0  0  0
   -9.8461  -22.4337   16.7219 H   0  0  0  0  0  0  0  0  0  0  0  0
   -9.6153  -23.5943   15.1297 H   0  0  0  0  0  0  0  0  0  0  0  0
   -9.2608  -24.1687   12.8160 H   0  0  0  0  0  0  0  0  0  0  0  0
  -11.8990  -24.3638   13.7395 H   0  0  0  0  0  0  0  0  0  0  0  0
  -12.0193  -25.6416   11.7123 H   0  0  0  0  0  0  0  0  0  0  0  0
  -12.7033  -25.7684    9.3418 H   0  0  0  0  0  0  0  0  0  0  0  0
  -11.8173  -24.0646    7.7437 H   0  0  0  0  0  0  0  0  0  0  0  0
   -9.6362  -22.1953   10.6999 H   0  0  0  0  0  0  0  0  0  0  0  0
  1  2  1  0
  2  3  2  0
  3  4  1  0
  4  5  1  0
  5  6  2  0
  6  7  1  0
  7  8  2  0
  7  9  1  0
  9 10  1  0
 10 11  1  0
 10 12  1  0
 12 13  1  0
 13 14  1  0
 14 15  2  0
 14 16  1  0
 16 17  1  0
 16 18  1  0
 18 19  2  0
 19 20  1  0
 20 21  2  0
 21 22  1  0
 22 23  2  0
  6  2  1  0
 23 18  1  0
  1 24  1  0
  1 25  1  0
  1 26  1  0
  3 27  1  0
  4 28  1  0
  9 29  1  0
 10 30  1  0
 11 31  1  0
 11 32  1  0
 11 33  1  0
 12 34  1  0
 12 35  1  0
 13 36  1  0
 16 37  1  0
 17 38  1  0
 19 39  1  0
 20 40  1  0
 21 41  1  0
 23 42  1  0
M  END
>  <Energy>  (821) 
473.91128962476455

>  <compound_id>  (821) 
24294

>  <target_id>  (821) 
1

>  <reference_id>  (821) 
123

>  <inspiration_ids>  (821) 
[123, 48]

>  <energy_score>  (821) 
343.16190084215066

>  <distance_score>  (821) 
5.941458890383805

>  <path>  (821) 
/opt/xchem-fragalysis-2/maxwin/BulkDock/SCRATCH/511017/C24294-P123/C24294-P123.minimised.mol

>  <scratch_subdir>  (821) 
/opt/xchem-fragalysis-2/maxwin/BulkDock/SCRATCH/511017/C24294-P123

>  <fragmenstein_runtime>  (821) 
17.80629873275757

>  <fragmenstein_outcome>  (821) 
too moved

>  <fragmenstein_mode>  (821) 
expansion

>  <fragmenstein_error>  (821) 


$$$$
C24294-P48
     RDKit          3D

 42 43  0  0  0  0  0  0  0  0999 V2000
  -11.1625  -22.6618   23.6624 C   0  0  0  0  0  0  0  0  0  0  0  0
  -10.2479  -21.6814   22.9876 C   0  0  0  0  0  0  0  0  0  0  0  0
  -10.9133  -20.5865   23.4295 C   0  0  0  0  0  0  0  0  0  0  0  0
  -11.6444  -20.6189   22.3279 N   0  0  0  0  0  0  0  0  0  0  0  0
  -11.1856  -21.2102   21.3115 N   0  0  0  0  0  0  0  0  0  0  0  0
   -9.8145  -21.2814   21.5555 C   0  0  0  0  0  0  0  0  0  0  0  0
   -9.6267  -21.7001   20.1858 C   0  0  0  0  0  0  0  0  0  0  0  0
  -10.0061  -22.7647   20.0964 O   0  0  0  0  0  0  0  0  0  0  0  0
   -9.0925  -20.9010   18.4915 N   0  0  0  0  0  0  0  0  0  0  0  0
   -9.2462  -21.5610   16.6179 C   0  0  0  0  0  0  0  0  0  0  0  0
   -8.4303  -22.6365   15.4227 C   0  0  0  0  0  0  0  0  0  0  0  0
  -10.0151  -21.2099   15.0096 C   0  0  0  0  0  0  0  0  0  0  0  0
  -10.1022  -21.9876   13.6650 N   0  0  0  0  0  0  0  0  0  0  0  0
  -10.6998  -23.2968   13.3457 C   0  0  0  0  0  0  0  0  0  0  0  0
  -11.1992  -24.1262   14.0606 O   0  0  0  0  0  0  0  0  0  0  0  0
  -10.5459  -23.6557   11.8613 C   0  0  0  0  0  0  0  0  0  0  0  0
   -9.2457  -24.2416   11.7404 O   0  0  0  0  0  0  0  0  0  0  0  0
  -11.5826  -24.5998   11.2705 C   0  0  0  0  0  0  0  0  0  0  0  0
  -11.2520  -25.5747   10.3135 C   0  0  0  0  0  0  0  0  0  0  0  0
  -12.2482  -26.3101    9.6767 C   0  0  0  0  0  0  0  0  0  0  0  0
  -13.5623  -26.0524   10.0146 C   0  0  0  0  0  0  0  0  0  0  0  0
  -13.9302  -25.1415   10.9398 N   0  0  0  0  0  0  0  0  0  0  0  0
  -12.9372  -24.4526   11.5525 C   0  0  0  0  0  0  0  0  0  0  0  0
  -10.5669  -23.3691   24.2235 H   0  0  0  0  0  0  0  0  0  0  0  0
  -11.8928  -22.3301   24.4323 H   0  0  0  0  0  0  0  0  0  0  0  0
  -11.9132  -22.8724   22.9153 H   0  0  0  0  0  0  0  0  0  0  0  0
  -11.4895  -20.3940   24.3158 H   0  0  0  0  0  0  0  0  0  0  0  0
  -12.3707  -20.0345   22.1074 H   0  0  0  0  0  0  0  0  0  0  0  0
   -8.8500  -19.9314   18.6555 H   0  0  0  0  0  0  0  0  0  0  0  0
   -9.8210  -22.4123   16.8148 H   0  0  0  0  0  0  0  0  0  0  0  0
   -7.5342  -23.0848   15.7373 H   0  0  0  0  0  0  0  0  0  0  0  0
   -8.1009  -22.1443   14.4972 H   0  0  0  0  0  0  0  0  0  0  0  0
   -9.1096  -23.4786   15.2366 H   0  0  0  0  0  0  0  0  0  0  0  0
  -10.6472  -21.9929   15.2373 H   0  0  0  0  0  0  0  0  0  0  0  0
  -10.3292  -20.2009   14.8077 H   0  0  0  0  0  0  0  0  0  0  0  0
   -9.8529  -21.5167   12.8020 H   0  0  0  0  0  0  0  0  0  0  0  0
  -10.5547  -22.7351   11.2768 H   0  0  0  0  0  0  0  0  0  0  0  0
   -9.2549  -25.0212   12.3317 H   0  0  0  0  0  0  0  0  0  0  0  0
  -10.2157  -25.7507   10.0278 H   0  0  0  0  0  0  0  0  0  0  0  0
  -12.0015  -27.0523    8.9260 H   0  0  0  0  0  0  0  0  0  0  0  0
  -14.3787  -26.5899    9.5415 H   0  0  0  0  0  0  0  0  0  0  0  0
  -13.2877  -23.7383   12.2935 H   0  0  0  0  0  0  0  0  0  0  0  0
  1  2  1  0
  2  3  2  0
  3  4  1  0
  4  5  1  0
  5  6  2  0
  6  7  1  0
  7  8  2  0
  7  9  1  0
  9 10  1  0
 10 11  1  0
 10 12  1  0
 12 13  1  0
 13 14  1  0
 14 15  2  0
 14 16  1  0
 16 17  1  0
 16 18  1  0
 18 19  2  0
 19 20  1  0
 20 21  2  0
 21 22  1  0
 22 23  2  0
  6  2  1  0
 23 18  1  0
  1 24  1  0
  1 25  1  0
  1 26  1  0
  3 27  1  0
  4 28  1  0
  9 29  1  0
 10 30  1  0
 11 31  1  0
 11 32  1  0
 11 33  1  0
 12 34  1  0
 12 35  1  0
 13 36  1  0
 16 37  1  0
 17 38  1  0
 19 39  1  0
 20 40  1  0
 21 41  1  0
 23 42  1  0
M  END
>  <Energy>  (822) 
709.91528990593031

>  <compound_id>  (822) 
24294

>  <target_id>  (822) 
1

>  <reference_id>  (822) 
48

>  <inspiration_ids>  (822) 
[123, 48]

>  <energy_score>  (822) 
579.1659011233235

>  <distance_score>  (822) 
6.360377804488991

>  <path>  (822) 
/opt/xchem-fragalysis-2/maxwin/BulkDock/SCRATCH/511017/C24294-P48/C24294-P48.minimised.mol

>  <scratch_subdir>  (822) 
/opt/xchem-fragalysis-2/maxwin/BulkDock/SCRATCH/511017/C24294-P48

>  <fragmenstein_runtime>  (822) 
14.680017471313477

>  <fragmenstein_outcome>  (822) 
too moved

>  <fragmenstein_mode>  (822) 
expansion

>  <fragmenstein_error>  (822) 


$$$$
C24295-P123
     RDKit          3D

 47 48  0  0  0  0  0  0  0  0999 V2000
   -8.3429  -22.1986   14.6264 C   0  0  0  0  0  0  0  0  0  0  0  0
   -9.4979  -21.7319   15.9196 C   0  0  0  0  0  0  0  0  0  0  0  0
   -9.8176  -22.8904   15.6165 N   0  0  0  0  0  0  0  0  0  0  0  0
   -9.3608  -21.2248   16.7978 C   0  0  0  0  0  0  0  0  0  0  0  0
   -9.2065  -20.8549   18.8254 C   0  0  0  0  0  0  0  0  0  0  0  0
  -10.4060  -21.4971   20.1565 N   0  0  0  0  0  0  0  0  0  0  0  0
  -10.2402  -21.6689   21.6326 C   0  0  0  0  0  0  0  0  0  0  0  0
   -9.2803  -21.5206   22.3305 O   0  0  0  0  0  0  0  0  0  0  0  0
  -11.6019  -21.9925   22.3012 C   0  0  0  0  0  0  0  0  0  0  0  0
  -11.8267  -22.7102   23.5993 N   0  0  0  0  0  0  0  0  0  0  0  0
  -13.0851  -22.8967   24.1587 C   0  0  0  0  0  0  0  0  0  0  0  0
  -12.9364  -23.7137   25.2625 C   0  0  0  0  0  0  0  0  0  0  0  0
  -11.5817  -24.0115   25.3028 C   0  0  0  0  0  0  0  0  0  0  0  0
  -10.9647  -23.5805   24.1967 N   0  0  0  0  0  0  0  0  0  0  0  0
  -10.5979  -23.2163   14.0619 C   0  0  0  0  0  0  0  0  0  0  0  0
  -10.9924  -22.5330   13.2278 O   0  0  0  0  0  0  0  0  0  0  0  0
  -10.6072  -24.7532   13.9855 C   0  0  0  0  0  0  0  0  0  0  0  0
  -10.1951  -25.2606   12.5906 C   0  0  0  0  0  0  0  0  0  0  0  0
  -11.2141  -25.3697   11.4788 C   0  0  0  0  0  0  0  0  0  0  0  0
  -10.8912  -26.1181   10.3362 C   0  0  0  0  0  0  0  0  0  0  0  0
  -11.7837  -26.2063    9.2706 C   0  0  0  0  0  0  0  0  0  0  0  0
  -12.9862  -25.5335    9.3731 C   0  0  0  0  0  0  0  0  0  0  0  0
  -13.3403  -24.7984   10.4474 N   0  0  0  0  0  0  0  0  0  0  0  0
  -12.4470  -24.7306   11.4690 C   0  0  0  0  0  0  0  0  0  0  0  0
   -8.7630  -22.4718   13.6577 H   0  0  0  0  0  0  0  0  0  0  0  0
   -7.5749  -21.5558   14.2496 H   0  0  0  0  0  0  0  0  0  0  0  0
   -7.7937  -22.9329   15.1514 H   0  0  0  0  0  0  0  0  0  0  0  0
   -9.6875  -20.9227   15.0123 H   0  0  0  0  0  0  0  0  0  0  0  0
  -10.4530  -21.5758   15.3879 H   0  0  0  0  0  0  0  0  0  0  0  0
   -9.6370  -20.1096   16.5933 H   0  0  0  0  0  0  0  0  0  0  0  0
   -8.2104  -21.0135   17.1790 H   0  0  0  0  0  0  0  0  0  0  0  0
   -9.7096  -19.8367   18.7517 H   0  0  0  0  0  0  0  0  0  0  0  0
   -8.4576  -20.1108   19.1603 H   0  0  0  0  0  0  0  0  0  0  0  0
  -11.3884  -21.6279   19.9127 H   0  0  0  0  0  0  0  0  0  0  0  0
  -12.2828  -22.4401   21.5794 H   0  0  0  0  0  0  0  0  0  0  0  0
  -11.9815  -21.0021   22.5459 H   0  0  0  0  0  0  0  0  0  0  0  0
  -13.9502  -22.4090   23.7432 H   0  0  0  0  0  0  0  0  0  0  0  0
  -13.6901  -24.0658   25.9398 H   0  0  0  0  0  0  0  0  0  0  0  0
  -11.0311  -24.5928   26.0289 H   0  0  0  0  0  0  0  0  0  0  0  0
  -11.5992  -25.1215   14.2630 H   0  0  0  0  0  0  0  0  0  0  0  0
   -9.8942  -25.1615   14.7032 H   0  0  0  0  0  0  0  0  0  0  0  0
   -9.7903  -26.2712   12.7407 H   0  0  0  0  0  0  0  0  0  0  0  0
   -9.3692  -24.6437   12.2136 H   0  0  0  0  0  0  0  0  0  0  0  0
   -9.9337  -26.6304   10.2708 H   0  0  0  0  0  0  0  0  0  0  0  0
  -11.5426  -26.7819    8.3847 H   0  0  0  0  0  0  0  0  0  0  0  0
  -13.7188  -25.5680    8.5725 H   0  0  0  0  0  0  0  0  0  0  0  0
  -12.7752  -24.1097   12.2975 H   0  0  0  0  0  0  0  0  0  0  0  0
  1  2  1  0
  2  3  1  0
  3  4  1  0
  4  5  1  0
  5  6  1  0
  6  7  1  0
  7  8  2  0
  7  9  1  0
  9 10  1  0
 10 11  1  0
 11 12  2  0
 12 13  1  0
 13 14  2  0
  3 15  1  0
 15 16  2  0
 15 17  1  0
 17 18  1  0
 18 19  1  0
 19 20  2  0
 20 21  1  0
 21 22  2  0
 22 23  1  0
 23 24  2  0
 14 10  1  0
 24 19  1  0
  1 25  1  0
  1 26  1  0
  1 27  1  0
  2 28  1  0
  2 29  1  0
  4 30  1  0
  4 31  1  0
  5 32  1  0
  5 33  1  0
  6 34  1  0
  9 35  1  0
  9 36  1  0
 11 37  1  0
 12 38  1  0
 13 39  1  0
 17 40  1  0
 17 41  1  0
 18 42  1  0
 18 43  1  0
 20 44  1  0
 21 45  1  0
 22 46  1  0
 24 47  1  0
M  END
>  <Energy>  (823) 
1060.6683076604768

>  <compound_id>  (823) 
24295

>  <target_id>  (823) 
1

>  <reference_id>  (823) 
123

>  <inspiration_ids>  (823) 
[123, 48]

>  <energy_score>  (823) 
1005.0401740567431

>  <distance_score>  (823) 
4.88747294281281

>  <path>  (823) 
/opt/xchem-fragalysis-2/maxwin/BulkDock/SCRATCH/511017/C24295-P123/C24295-P123.minimised.mol

>  <scratch_subdir>  (823) 
/opt/xchem-fragalysis-2/maxwin/BulkDock/SCRATCH/511017/C24295-P123

>  <fragmenstein_runtime>  (823) 
22.657963752746582

>  <fragmenstein_outcome>  (823) 
too moved

>  <fragmenstein_mode>  (823) 
expansion

>  <fragmenstein_error>  (823) 


$$$$
C24295-P48
     RDKit          3D

 47 48  0  0  0  0  0  0  0  0999 V2000
   -9.5601  -23.4485   15.6073 C   0  0  0  0  0  0  0  0  0  0  0  0
   -9.4045  -21.7218   16.2263 C   0  0  0  0  0  0  0  0  0  0  0  0
  -10.1559  -21.7414   15.2947 N   0  0  0  0  0  0  0  0  0  0  0  0
   -9.1761  -21.2450   17.1085 C   0  0  0  0  0  0  0  0  0  0  0  0
   -9.1323  -20.6455   19.1091 C   0  0  0  0  0  0  0  0  0  0  0  0
  -10.4285  -21.3043   20.4073 N   0  0  0  0  0  0  0  0  0  0  0  0
  -10.3010  -21.6002   21.8727 C   0  0  0  0  0  0  0  0  0  0  0  0
   -9.3462  -21.5818   22.5875 O   0  0  0  0  0  0  0  0  0  0  0  0
  -11.7487  -21.8533   22.3735 C   0  0  0  0  0  0  0  0  0  0  0  0
  -12.4465  -22.2222   23.6612 N   0  0  0  0  0  0  0  0  0  0  0  0
  -12.0846  -22.8296   24.8257 C   0  0  0  0  0  0  0  0  0  0  0  0
  -13.1796  -23.2584   25.5231 C   0  0  0  0  0  0  0  0  0  0  0  0
  -14.2270  -22.9583   24.6669 C   0  0  0  0  0  0  0  0  0  0  0  0
  -13.8173  -22.3339   23.5606 N   0  0  0  0  0  0  0  0  0  0  0  0
   -9.6411  -22.0595   13.6791 C   0  0  0  0  0  0  0  0  0  0  0  0
   -8.5789  -22.1820   13.2042 O   0  0  0  0  0  0  0  0  0  0  0  0
  -10.8764  -22.3010   12.8293 C   0  0  0  0  0  0  0  0  0  0  0  0
  -11.4346  -23.7422   12.9631 C   0  0  0  0  0  0  0  0  0  0  0  0
  -11.8951  -24.4319   11.7011 C   0  0  0  0  0  0  0  0  0  0  0  0
  -11.0186  -25.2014   10.9307 C   0  0  0  0  0  0  0  0  0  0  0  0
  -11.4706  -25.8167    9.7640 C   0  0  0  0  0  0  0  0  0  0  0  0
  -12.7969  -25.6513    9.4075 C   0  0  0  0  0  0  0  0  0  0  0  0
  -13.6856  -24.9524   10.1449 N   0  0  0  0  0  0  0  0  0  0  0  0
  -13.2177  -24.3787   11.2783 C   0  0  0  0  0  0  0  0  0  0  0  0
   -9.2474  -23.7375   14.6103 H   0  0  0  0  0  0  0  0  0  0  0  0
   -8.7844  -24.0167   16.0504 H   0  0  0  0  0  0  0  0  0  0  0  0
  -10.5524  -23.9135   15.6132 H   0  0  0  0  0  0  0  0  0  0  0  0
   -9.6707  -20.7008   15.5411 H   0  0  0  0  0  0  0  0  0  0  0  0
   -8.4084  -22.1536   15.6148 H   0  0  0  0  0  0  0  0  0  0  0  0
   -7.9866  -21.0239   17.2771 H   0  0  0  0  0  0  0  0  0  0  0  0
   -9.3947  -20.0937   17.0951 H   0  0  0  0  0  0  0  0  0  0  0  0
   -9.6596  -19.6520   18.9447 H   0  0  0  0  0  0  0  0  0  0  0  0
   -8.3973  -19.9022   19.4855 H   0  0  0  0  0  0  0  0  0  0  0  0
  -11.4211  -21.3366   20.1411 H   0  0  0  0  0  0  0  0  0  0  0  0
  -12.2359  -22.4821   21.6241 H   0  0  0  0  0  0  0  0  0  0  0  0
  -12.0966  -20.8331   22.3001 H   0  0  0  0  0  0  0  0  0  0  0  0
  -11.1087  -23.2480   24.9818 H   0  0  0  0  0  0  0  0  0  0  0  0
  -13.1586  -23.7959   26.4541 H   0  0  0  0  0  0  0  0  0  0  0  0
  -15.2834  -23.1430   24.8068 H   0  0  0  0  0  0  0  0  0  0  0  0
  -11.6108  -21.5413   13.0577 H   0  0  0  0  0  0  0  0  0  0  0  0
  -10.5377  -22.1553   11.7986 H   0  0  0  0  0  0  0  0  0  0  0  0
  -12.2690  -23.7414   13.6720 H   0  0  0  0  0  0  0  0  0  0  0  0
  -10.6930  -24.4165   13.3979 H   0  0  0  0  0  0  0  0  0  0  0  0
   -9.9768  -25.3140   11.2244 H   0  0  0  0  0  0  0  0  0  0  0  0
  -10.7970  -26.3946    9.1405 H   0  0  0  0  0  0  0  0  0  0  0  0
  -13.1921  -26.0957    8.4989 H   0  0  0  0  0  0  0  0  0  0  0  0
  -13.9697  -23.8535   11.8594 H   0  0  0  0  0  0  0  0  0  0  0  0
  1  2  1  0
  2  3  1  0
  3  4  1  0
  4  5  1  0
  5  6  1  0
  6  7  1  0
  7  8  2  0
  7  9  1  0
  9 10  1  0
 10 11  1  0
 11 12  2  0
 12 13  1  0
 13 14  2  0
  3 15  1  0
 15 16  2  0
 15 17  1  0
 17 18  1  0
 18 19  1  0
 19 20  2  0
 20 21  1  0
 21 22  2  0
 22 23  1  0
 23 24  2  0
 14 10  1  0
 24 19  1  0
  1 25  1  0
  1 26  1  0
  1 27  1  0
  2 28  1  0
  2 29  1  0
  4 30  1  0
  4 31  1  0
  5 32  1  0
  5 33  1  0
  6 34  1  0
  9 35  1  0
  9 36  1  0
 11 37  1  0
 12 38  1  0
 13 39  1  0
 17 40  1  0
 17 41  1  0
 18 42  1  0
 18 43  1  0
 20 44  1  0
 21 45  1  0
 22 46  1  0
 24 47  1  0
M  END
>  <Energy>  (824) 
1215.7787271275408

>  <compound_id>  (824) 
24295

>  <target_id>  (824) 
1

>  <reference_id>  (824) 
48

>  <inspiration_ids>  (824) 
[123, 48]

>  <energy_score>  (824) 
1160.150593523812

>  <distance_score>  (824) 
5.10313605991612

>  <path>  (824) 
/opt/xchem-fragalysis-2/maxwin/BulkDock/SCRATCH/511017/C24295-P48/C24295-P48.minimised.mol

>  <scratch_subdir>  (824) 
/opt/xchem-fragalysis-2/maxwin/BulkDock/SCRATCH/511017/C24295-P48

>  <fragmenstein_runtime>  (824) 
15.337544918060303

>  <fragmenstein_outcome>  (824) 
too moved

>  <fragmenstein_mode>  (824) 
expansion

>  <fragmenstein_error>  (824) 


$$$$
C24296-P123
     RDKit          3D

 40 41  0  0  0  0  0  0  0  0999 V2000
  -12.8117  -24.4783   12.6414 C   0  0  0  0  0  0  0  0  0  0  0  0
  -11.3161  -24.3243   12.3471 C   0  0  0  0  0  0  0  0  0  0  0  0
  -10.5157  -25.2473   13.2601 C   0  0  0  0  0  0  0  0  0  0  0  0
  -10.8532  -22.8257   12.3475 C   0  0  0  0  0  0  0  0  0  0  0  0
  -10.6053  -22.2338   13.6557 N   0  0  0  0  0  0  0  0  0  0  0  0
  -10.4756  -20.7856   14.0802 C   0  0  0  0  0  0  0  0  0  0  0  0
  -10.6283  -19.7812   13.4492 O   0  0  0  0  0  0  0  0  0  0  0  0
   -9.8763  -20.5925   15.7883 C   0  0  0  0  0  0  0  0  0  0  0  0
   -9.4531  -19.7232   17.3540 C   0  0  0  0  0  0  0  0  0  0  0  0
   -9.1597  -20.4737   18.6944 C   0  0  0  0  0  0  0  0  0  0  0  0
  -10.0075  -21.3106   20.1723 C   0  0  0  0  0  0  0  0  0  0  0  0
  -11.3733  -21.6825   20.4124 C   0  0  0  0  0  0  0  0  0  0  0  0
  -12.0438  -22.0249   21.6588 C   0  0  0  0  0  0  0  0  0  0  0  0
  -11.5118  -21.6739   22.8390 C   0  0  0  0  0  0  0  0  0  0  0  0
  -10.2805  -21.2663   22.7644 N   0  0  0  0  0  0  0  0  0  0  0  0
   -9.6301  -21.4837   21.5064 C   0  0  0  0  0  0  0  0  0  0  0  0
   -8.4694  -21.0051   17.6790 N   0  0  0  0  0  0  0  0  0  0  0  0
   -9.4115  -21.6882   16.3681 N   0  0  0  0  0  0  0  0  0  0  0  0
   -8.7909  -22.5985   15.2460 C   0  0  0  0  0  0  0  0  0  0  0  0
   -9.7120  -22.6111   11.3317 C   0  0  0  0  0  0  0  0  0  0  0  0
   -8.6513  -23.3985   11.6151 F   0  0  0  0  0  0  0  0  0  0  0  0
   -9.3129  -21.3303   11.2901 F   0  0  0  0  0  0  0  0  0  0  0  0
  -10.1402  -22.9431   10.0854 F   0  0  0  0  0  0  0  0  0  0  0  0
  -13.0903  -24.0501   13.6029 H   0  0  0  0  0  0  0  0  0  0  0  0
  -13.4129  -23.9892   11.8700 H   0  0  0  0  0  0  0  0  0  0  0  0
  -13.0999  -25.5353   12.6486 H   0  0  0  0  0  0  0  0  0  0  0  0
  -11.1854  -24.7061   11.3251 H   0  0  0  0  0  0  0  0  0  0  0  0
  -10.7094  -25.0438   14.3162 H   0  0  0  0  0  0  0  0  0  0  0  0
  -10.7910  -26.2928   13.0805 H   0  0  0  0  0  0  0  0  0  0  0  0
   -9.4461  -25.1607   13.0682 H   0  0  0  0  0  0  0  0  0  0  0  0
  -11.6788  -22.2758   11.9912 H   0  0  0  0  0  0  0  0  0  0  0  0
  -10.4952  -22.8134   14.4418 H   0  0  0  0  0  0  0  0  0  0  0  0
   -9.5241  -18.6226   17.4369 H   0  0  0  0  0  0  0  0  0  0  0  0
  -12.0995  -21.7707   19.6172 H   0  0  0  0  0  0  0  0  0  0  0  0
  -13.0152  -22.4768   21.6407 H   0  0  0  0  0  0  0  0  0  0  0  0
  -12.0232  -21.7118   23.7870 H   0  0  0  0  0  0  0  0  0  0  0  0
   -9.5124  -22.5240   21.6849 H   0  0  0  0  0  0  0  0  0  0  0  0
   -7.7597  -22.7801   15.3703 H   0  0  0  0  0  0  0  0  0  0  0  0
   -8.6614  -22.1055   14.2955 H   0  0  0  0  0  0  0  0  0  0  0  0
   -9.2900  -23.5518   15.2161 H   0  0  0  0  0  0  0  0  0  0  0  0
  1  2  1  0
  2  3  1  0
  2  4  1  0
  4  5  1  0
  5  6  1  0
  6  7  2  0
  6  8  1  0
  8  9  2  0
  9 10  1  0
 10 11  1  0
 11 12  2  0
 12 13  1  0
 13 14  2  0
 14 15  1  0
 15 16  2  0
 10 17  2  0
 17 18  1  0
 18 19  1  0
  4 20  1  0
 20 21  1  0
 20 22  1  0
 20 23  1  0
 18  8  1  0
 16 11  1  0
  1 24  1  0
  1 25  1  0
  1 26  1  0
  2 27  1  0
  3 28  1  0
  3 29  1  0
  3 30  1  0
  4 31  1  0
  5 32  1  0
  9 33  1  0
 12 34  1  0
 13 35  1  0
 14 36  1  0
 16 37  1  0
 19 38  1  0
 19 39  1  0
 19 40  1  0
M  END
>  <Energy>  (825) 
562.11442545660748

>  <compound_id>  (825) 
24296

>  <target_id>  (825) 
1

>  <reference_id>  (825) 
123

>  <inspiration_ids>  (825) 
[123, 48]

>  <energy_score>  (825) 
475.085479847114

>  <distance_score>  (825) 
7.596919410771481

>  <path>  (825) 
/opt/xchem-fragalysis-2/maxwin/BulkDock/SCRATCH/511017/C24296-P123/C24296-P123.minimised.mol

>  <scratch_subdir>  (825) 
/opt/xchem-fragalysis-2/maxwin/BulkDock/SCRATCH/511017/C24296-P123

>  <fragmenstein_runtime>  (825) 
28.478271007537842

>  <fragmenstein_outcome>  (825) 
too moved

>  <fragmenstein_mode>  (825) 
expansion

>  <fragmenstein_error>  (825) 


$$$$
C24296-P48
     RDKit          3D

 40 41  0  0  0  0  0  0  0  0999 V2000
  -10.7604  -23.8712   12.0359 C   0  0  0  0  0  0  0  0  0  0  0  0
   -9.6436  -24.0408   13.0839 C   0  0  0  0  0  0  0  0  0  0  0  0
  -10.2598  -24.8378   14.2220 C   0  0  0  0  0  0  0  0  0  0  0  0
   -9.0054  -22.6428   13.4023 C   0  0  0  0  0  0  0  0  0  0  0  0
   -8.6314  -21.9893   14.5858 N   0  0  0  0  0  0  0  0  0  0  0  0
   -9.2221  -21.9785   15.9163 C   0  0  0  0  0  0  0  0  0  0  0  0
  -10.0928  -22.6137   16.2330 O   0  0  0  0  0  0  0  0  0  0  0  0
   -8.7430  -20.7510   17.3568 C   0  0  0  0  0  0  0  0  0  0  0  0
   -8.9872  -21.0958   18.5874 C   0  0  0  0  0  0  0  0  0  0  0  0
   -9.0811  -20.5736   19.8094 C   0  0  0  0  0  0  0  0  0  0  0  0
   -9.9944  -21.4339   21.0162 C   0  0  0  0  0  0  0  0  0  0  0  0
  -11.3313  -21.7828   20.9845 C   0  0  0  0  0  0  0  0  0  0  0  0
  -12.1076  -22.1223   22.1065 C   0  0  0  0  0  0  0  0  0  0  0  0
  -11.6903  -21.8727   23.3393 C   0  0  0  0  0  0  0  0  0  0  0  0
  -10.4370  -21.5640   23.4192 N   0  0  0  0  0  0  0  0  0  0  0  0
   -9.6392  -21.4357   22.3268 C   0  0  0  0  0  0  0  0  0  0  0  0
   -8.2428  -19.5331   19.5517 N   0  0  0  0  0  0  0  0  0  0  0  0
   -8.3196  -19.3930   18.1489 N   0  0  0  0  0  0  0  0  0  0  0  0
   -8.3645  -17.9399   17.9299 C   0  0  0  0  0  0  0  0  0  0  0  0
   -7.9147  -22.1229   12.5160 C   0  0  0  0  0  0  0  0  0  0  0  0
   -7.2471  -23.1599   11.9798 F   0  0  0  0  0  0  0  0  0  0  0  0
   -6.9773  -21.3724   13.1033 F   0  0  0  0  0  0  0  0  0  0  0  0
   -8.5006  -21.2551   11.6594 F   0  0  0  0  0  0  0  0  0  0  0  0
  -10.4807  -23.1426   11.2782 H   0  0  0  0  0  0  0  0  0  0  0  0
  -10.9810  -24.8235   11.5426 H   0  0  0  0  0  0  0  0  0  0  0  0
  -11.6867  -23.5077   12.4958 H   0  0  0  0  0  0  0  0  0  0  0  0
   -8.8808  -24.6746   12.6160 H   0  0  0  0  0  0  0  0  0  0  0  0
  -11.1561  -24.3563   14.6060 H   0  0  0  0  0  0  0  0  0  0  0  0
  -10.5644  -25.8296   13.8666 H   0  0  0  0  0  0  0  0  0  0  0  0
   -9.5706  -25.0015   15.0410 H   0  0  0  0  0  0  0  0  0  0  0  0
   -9.8742  -22.0032   13.1773 H   0  0  0  0  0  0  0  0  0  0  0  0
   -7.8204  -21.4036   14.5945 H   0  0  0  0  0  0  0  0  0  0  0  0
   -9.5587  -21.9407   18.6897 H   0  0  0  0  0  0  0  0  0  0  0  0
  -11.8937  -21.7787   20.0768 H   0  0  0  0  0  0  0  0  0  0  0  0
  -13.0561  -22.5777   22.0094 H   0  0  0  0  0  0  0  0  0  0  0  0
  -12.2789  -21.9870   24.2367 H   0  0  0  0  0  0  0  0  0  0  0  0
   -8.6652  -21.0251   22.5271 H   0  0  0  0  0  0  0  0  0  0  0  0
   -9.4092  -17.6755   18.0169 H   0  0  0  0  0  0  0  0  0  0  0  0
   -7.7890  -17.4470   18.7246 H   0  0  0  0  0  0  0  0  0  0  0  0
   -7.9625  -17.5284   17.0223 H   0  0  0  0  0  0  0  0  0  0  0  0
  1  2  1  0
  2  3  1  0
  2  4  1  0
  4  5  1  0
  5  6  1  0
  6  7  2  0
  6  8  1  0
  8  9  2  0
  9 10  1  0
 10 11  1  0
 11 12  2  0
 12 13  1  0
 13 14  2  0
 14 15  1  0
 15 16  2  0
 10 17  2  0
 17 18  1  0
 18 19  1  0
  4 20  1  0
 20 21  1  0
 20 22  1  0
 20 23  1  0
 18  8  1  0
 16 11  1  0
  1 24  1  0
  1 25  1  0
  1 26  1  0
  2 27  1  0
  3 28  1  0
  3 29  1  0
  3 30  1  0
  4 31  1  0
  5 32  1  0
  9 33  1  0
 12 34  1  0
 13 35  1  0
 14 36  1  0
 16 37  1  0
 19 38  1  0
 19 39  1  0
 19 40  1  0
M  END
>  <Energy>  (826) 
390.91610144755782

>  <compound_id>  (826) 
24296

>  <target_id>  (826) 
1

>  <reference_id>  (826) 
48

>  <inspiration_ids>  (826) 
[123, 48]

>  <energy_score>  (826) 
303.88715583805674

>  <distance_score>  (826) 
7.690127047403816

>  <path>  (826) 
/opt/xchem-fragalysis-2/maxwin/BulkDock/SCRATCH/511017/C24296-P48/C24296-P48.minimised.mol

>  <scratch_subdir>  (826) 
/opt/xchem-fragalysis-2/maxwin/BulkDock/SCRATCH/511017/C24296-P48

>  <fragmenstein_runtime>  (826) 
17.7632794380188

>  <fragmenstein_outcome>  (826) 
too moved

>  <fragmenstein_mode>  (826) 
expansion

>  <fragmenstein_error>  (826) 


$$$$
C24298-P123
     RDKit          3D

 42 43  0  0  0  0  0  0  0  0999 V2000
   -7.3363  -18.7486   21.5521 C   0  0  0  0  0  0  0  0  0  0  0  0
   -7.8212  -19.3129   20.1624 C   0  0  0  0  0  0  0  0  0  0  0  0
   -9.0237  -20.7371   19.8285 N   0  0  0  0  0  0  0  0  0  0  0  0
   -8.8203  -19.8750   18.3643 C   0  0  0  0  0  0  0  0  0  0  0  0
   -8.8717  -20.9121   17.3202 C   0  0  0  0  0  0  0  0  0  0  0  0
   -9.6477  -21.5722   15.8324 N   0  0  0  0  0  0  0  0  0  0  0  0
   -9.0892  -22.1299   14.6584 C   0  0  0  0  0  0  0  0  0  0  0  0
   -7.9611  -22.2348   14.3186 O   0  0  0  0  0  0  0  0  0  0  0  0
  -10.0889  -22.6026   13.5511 C   0  0  0  0  0  0  0  0  0  0  0  0
  -10.6447  -23.9136   13.6618 O   0  0  0  0  0  0  0  0  0  0  0  0
  -11.0740  -24.3700   12.4436 C   0  0  0  0  0  0  0  0  0  0  0  0
  -10.1855  -24.9002   11.5134 C   0  0  0  0  0  0  0  0  0  0  0  0
  -10.6705  -25.3647   10.2910 C   0  0  0  0  0  0  0  0  0  0  0  0
  -12.0343  -25.2885   10.0512 C   0  0  0  0  0  0  0  0  0  0  0  0
  -12.9269  -24.7991   10.9411 N   0  0  0  0  0  0  0  0  0  0  0  0
  -12.4238  -24.3716   12.1281 C   0  0  0  0  0  0  0  0  0  0  0  0
  -10.4704  -21.0769   20.7587 C   0  0  0  0  0  0  0  0  0  0  0  0
  -11.5214  -20.6150   20.4651 O   0  0  0  0  0  0  0  0  0  0  0  0
  -10.6061  -21.8360   22.0710 C   0  0  0  0  0  0  0  0  0  0  0  0
  -11.8862  -21.5996   22.5768 N   0  0  0  0  0  0  0  0  0  0  0  0
  -12.0895  -22.2848   23.6747 N   0  0  0  0  0  0  0  0  0  0  0  0
  -11.0849  -23.1405   23.8826 C   0  0  0  0  0  0  0  0  0  0  0  0
  -10.0578  -22.6330   23.0721 C   0  0  0  0  0  0  0  0  0  0  0  0
   -8.8207  -23.1079   23.2271 F   0  0  0  0  0  0  0  0  0  0  0  0
   -7.3047  -19.4539   22.3794 H   0  0  0  0  0  0  0  0  0  0  0  0
   -6.3433  -18.3173   21.4047 H   0  0  0  0  0  0  0  0  0  0  0  0
   -7.9332  -17.8801   21.8478 H   0  0  0  0  0  0  0  0  0  0  0  0
   -7.8679  -18.3898   19.5589 H   0  0  0  0  0  0  0  0  0  0  0  0
   -6.8480  -19.6989   19.8077 H   0  0  0  0  0  0  0  0  0  0  0  0
   -7.8706  -19.3819   18.1617 H   0  0  0  0  0  0  0  0  0  0  0  0
   -9.5980  -19.1509   18.2077 H   0  0  0  0  0  0  0  0  0  0  0  0
   -7.7746  -21.0202   17.3026 H   0  0  0  0  0  0  0  0  0  0  0  0
   -9.3283  -21.5707   17.9706 H   0  0  0  0  0  0  0  0  0  0  0  0
  -10.5909  -21.5767   15.7539 H   0  0  0  0  0  0  0  0  0  0  0  0
   -9.5098  -22.5297   12.6156 H   0  0  0  0  0  0  0  0  0  0  0  0
  -10.8686  -21.8547   13.4137 H   0  0  0  0  0  0  0  0  0  0  0  0
   -9.1243  -24.9492   11.7414 H   0  0  0  0  0  0  0  0  0  0  0  0
   -9.9985  -25.7793    9.5483 H   0  0  0  0  0  0  0  0  0  0  0  0
  -12.4574  -25.6376    9.1137 H   0  0  0  0  0  0  0  0  0  0  0  0
  -13.1584  -24.0027   12.8369 H   0  0  0  0  0  0  0  0  0  0  0  0
  -12.9158  -22.0931   24.2419 H   0  0  0  0  0  0  0  0  0  0  0  0
  -11.0685  -23.8430   24.7043 H   0  0  0  0  0  0  0  0  0  0  0  0
  1  2  1  0
  2  3  1  0
  3  4  1  0
  4  5  1  0
  5  6  1  0
  6  7  1  0
  7  8  2  0
  7  9  1  0
  9 10  1  0
 10 11  1  0
 11 12  2  0
 12 13  1  0
 13 14  2  0
 14 15  1  0
 15 16  2  0
  3 17  1  0
 17 18  2  0
 17 19  1  0
 19 20  2  0
 20 21  1  0
 21 22  1  0
 22 23  2  0
 23 24  1  0
 16 11  1  0
 23 19  1  0
  1 25  1  0
  1 26  1  0
  1 27  1  0
  2 28  1  0
  2 29  1  0
  4 30  1  0
  4 31  1  0
  5 32  1  0
  5 33  1  0
  6 34  1  0
  9 35  1  0
  9 36  1  0
 12 37  1  0
 13 38  1  0
 14 39  1  0
 16 40  1  0
 21 41  1  0
 22 42  1  0
M  END
>  <Energy>  (827) 
455.2065219063299

>  <compound_id>  (827) 
24298

>  <target_id>  (827) 
1

>  <reference_id>  (827) 
123

>  <inspiration_ids>  (827) 
[123, 48]

>  <energy_score>  (827) 
336.25100885062

>  <distance_score>  (827) 
6.250738823287392

>  <path>  (827) 
/opt/xchem-fragalysis-2/maxwin/BulkDock/SCRATCH/511017/C24298-P123/C24298-P123.minimised.mol

>  <scratch_subdir>  (827) 
/opt/xchem-fragalysis-2/maxwin/BulkDock/SCRATCH/511017/C24298-P123

>  <fragmenstein_runtime>  (827) 
16.618644952774048

>  <fragmenstein_outcome>  (827) 
too moved

>  <fragmenstein_mode>  (827) 
expansion

>  <fragmenstein_error>  (827) 


$$$$
C24298-P48
     RDKit          3D

 42 43  0  0  0  0  0  0  0  0999 V2000
   -9.2645  -25.0051   20.8115 C   0  0  0  0  0  0  0  0  0  0  0  0
  -11.1492  -24.7041   20.4910 C   0  0  0  0  0  0  0  0  0  0  0  0
  -12.4235  -24.1418   20.7155 N   0  0  0  0  0  0  0  0  0  0  0  0
  -12.8457  -25.1504   19.3768 C   0  0  0  0  0  0  0  0  0  0  0  0
  -13.8808  -26.3332   19.1164 C   0  0  0  0  0  0  0  0  0  0  0  0
  -14.1475  -26.3501   17.6532 N   0  0  0  0  0  0  0  0  0  0  0  0
  -15.0251  -25.5477   16.8457 C   0  0  0  0  0  0  0  0  0  0  0  0
  -15.8270  -24.7115   17.1556 O   0  0  0  0  0  0  0  0  0  0  0  0
  -14.8576  -25.8625   15.3206 C   0  0  0  0  0  0  0  0  0  0  0  0
  -13.5249  -26.0695   14.8538 O   0  0  0  0  0  0  0  0  0  0  0  0
  -13.3188  -25.9696   13.4976 C   0  0  0  0  0  0  0  0  0  0  0  0
  -11.9946  -26.0639   13.0692 C   0  0  0  0  0  0  0  0  0  0  0  0
  -11.6827  -25.9689   11.7097 C   0  0  0  0  0  0  0  0  0  0  0  0
  -12.7147  -25.7778   10.8079 C   0  0  0  0  0  0  0  0  0  0  0  0
  -14.0092  -25.6861   11.1756 N   0  0  0  0  0  0  0  0  0  0  0  0
  -14.2784  -25.7873   12.5054 C   0  0  0  0  0  0  0  0  0  0  0  0
  -12.3088  -22.7736   20.8246 C   0  0  0  0  0  0  0  0  0  0  0  0
  -12.3771  -21.9486   20.0104 O   0  0  0  0  0  0  0  0  0  0  0  0
  -12.1866  -22.3295   22.2659 C   0  0  0  0  0  0  0  0  0  0  0  0
  -13.2613  -22.6363   23.0911 N   0  0  0  0  0  0  0  0  0  0  0  0
  -13.0611  -21.9992   24.2156 N   0  0  0  0  0  0  0  0  0  0  0  0
  -11.9625  -21.2445   24.1310 C   0  0  0  0  0  0  0  0  0  0  0  0
  -11.3074  -21.5758   22.9890 C   0  0  0  0  0  0  0  0  0  0  0  0
  -10.0593  -21.2883   22.6853 F   0  0  0  0  0  0  0  0  0  0  0  0
   -8.4876  -24.4416   21.4478 H   0  0  0  0  0  0  0  0  0  0  0  0
   -8.3929  -24.9511   20.1608 H   0  0  0  0  0  0  0  0  0  0  0  0
   -9.7161  -25.8741   21.2326 H   0  0  0  0  0  0  0  0  0  0  0  0
  -10.6904  -23.7678   20.6054 H   0  0  0  0  0  0  0  0  0  0  0  0
  -11.2698  -25.1945   21.3389 H   0  0  0  0  0  0  0  0  0  0  0  0
  -12.0195  -25.7488   18.9221 H   0  0  0  0  0  0  0  0  0  0  0  0
  -13.4397  -24.4325   18.7943 H   0  0  0  0  0  0  0  0  0  0  0  0
  -14.8339  -26.2773   19.6176 H   0  0  0  0  0  0  0  0  0  0  0  0
  -13.4565  -27.3190   19.3184 H   0  0  0  0  0  0  0  0  0  0  0  0
  -13.6629  -27.0151   17.0549 H   0  0  0  0  0  0  0  0  0  0  0  0
  -15.4606  -26.7529   15.1069 H   0  0  0  0  0  0  0  0  0  0  0  0
  -15.2969  -24.9946   14.8115 H   0  0  0  0  0  0  0  0  0  0  0  0
  -11.1961  -26.2001   13.7944 H   0  0  0  0  0  0  0  0  0  0  0  0
  -10.6552  -26.0370   11.3695 H   0  0  0  0  0  0  0  0  0  0  0  0
  -12.5233  -25.6930    9.7419 H   0  0  0  0  0  0  0  0  0  0  0  0
  -15.3378  -25.7163   12.7272 H   0  0  0  0  0  0  0  0  0  0  0  0
  -13.7550  -22.0195   24.9648 H   0  0  0  0  0  0  0  0  0  0  0  0
  -11.7407  -20.6366   24.9575 H   0  0  0  0  0  0  0  0  0  0  0  0
  1  2  1  0
  2  3  1  0
  3  4  1  0
  4  5  1  0
  5  6  1  0
  6  7  1  0
  7  8  2  0
  7  9  1  0
  9 10  1  0
 10 11  1  0
 11 12  2  0
 12 13  1  0
 13 14  2  0
 14 15  1  0
 15 16  2  0
  3 17  1  0
 17 18  2  0
 17 19  1  0
 19 20  2  0
 20 21  1  0
 21 22  1  0
 22 23  2  0
 23 24  1  0
 16 11  1  0
 23 19  1  0
  1 25  1  0
  1 26  1  0
  1 27  1  0
  2 28  1  0
  2 29  1  0
  4 30  1  0
  4 31  1  0
  5 32  1  0
  5 33  1  0
  6 34  1  0
  9 35  1  0
  9 36  1  0
 12 37  1  0
 13 38  1  0
 14 39  1  0
 16 40  1  0
 21 41  1  0
 22 42  1  0
M  END
>  <Energy>  (828) 
406.18881677282445

>  <compound_id>  (828) 
24298

>  <target_id>  (828) 
1

>  <reference_id>  (828) 
48

>  <inspiration_ids>  (828) 
[123, 48]

>  <energy_score>  (828) 
287.2333037171091

>  <distance_score>  (828) 
7.1270430604696005

>  <path>  (828) 
/opt/xchem-fragalysis-2/maxwin/BulkDock/SCRATCH/511017/C24298-P48/C24298-P48.minimised.mol

>  <scratch_subdir>  (828) 
/opt/xchem-fragalysis-2/maxwin/BulkDock/SCRATCH/511017/C24298-P48

>  <fragmenstein_runtime>  (828) 
12.804006099700928

>  <fragmenstein_outcome>  (828) 
too moved

>  <fragmenstein_mode>  (828) 
expansion

>  <fragmenstein_error>  (828) 


$$$$
C24300-P123
     RDKit          3D

 28 29  0  0  0  0  0  0  0  0999 V2000
  -14.4170  -27.2351   23.8654 N   0  0  0  0  0  0  0  0  0  0  0  0
  -13.5044  -26.5784   24.3874 C   0  0  0  0  0  0  0  0  0  0  0  0
  -13.5424  -25.5506   25.3973 N   0  0  0  0  0  0  0  0  0  0  0  0
  -12.0707  -27.0222   23.8570 C   0  0  0  0  0  0  0  0  0  0  0  0
  -11.1173  -27.1340   24.9910 C   0  0  0  0  0  0  0  0  0  0  0  0
  -10.3502  -28.1686   24.7201 N   0  0  0  0  0  0  0  0  0  0  0  0
  -10.3614  -28.5161   23.3557 N   0  0  0  0  0  0  0  0  0  0  0  0
  -11.3162  -27.6561   22.3302 C   0  0  0  0  0  0  0  0  0  0  0  0
  -11.0204  -27.8677   20.2342 N   0  0  0  0  0  0  0  0  0  0  0  0
  -12.1932  -27.7770   18.0986 S   0  0  0  0  0  0  0  0  0  0  0  0
  -12.4095  -29.1909   17.7380 O   0  0  0  0  0  0  0  0  0  0  0  0
  -13.4124  -26.9586   18.0873 O   0  0  0  0  0  0  0  0  0  0  0  0
  -11.4190  -27.2665   16.4739 C   0  0  0  0  0  0  0  0  0  0  0  0
  -11.8834  -26.1319   15.8124 C   0  0  0  0  0  0  0  0  0  0  0  0
  -11.5935  -25.8879   14.4583 C   0  0  0  0  0  0  0  0  0  0  0  0
  -10.9365  -26.8603   13.7399 C   0  0  0  0  0  0  0  0  0  0  0  0
  -10.6474  -28.0586   14.2674 N   0  0  0  0  0  0  0  0  0  0  0  0
  -10.9574  -28.2448   15.5854 C   0  0  0  0  0  0  0  0  0  0  0  0
  -15.3101  -26.9220   24.2681 H   0  0  0  0  0  0  0  0  0  0  0  0
  -12.5691  -25.3155   25.6731 H   0  0  0  0  0  0  0  0  0  0  0  0
  -12.5896  -25.1412   25.4962 H   0  0  0  0  0  0  0  0  0  0  0  0
  -11.1850  -26.8085   26.0224 H   0  0  0  0  0  0  0  0  0  0  0  0
   -9.7541  -29.2324   22.9566 H   0  0  0  0  0  0  0  0  0  0  0  0
  -10.7102  -26.8927   20.1229 H   0  0  0  0  0  0  0  0  0  0  0  0
  -12.5809  -25.4739   16.3122 H   0  0  0  0  0  0  0  0  0  0  0  0
  -11.9194  -24.9813   13.9614 H   0  0  0  0  0  0  0  0  0  0  0  0
  -10.6737  -26.7237   12.6960 H   0  0  0  0  0  0  0  0  0  0  0  0
  -10.8419  -29.2843   15.8905 H   0  0  0  0  0  0  0  0  0  0  0  0
  1  2  2  3
  2  3  1  0
  2  4  1  0
  4  5  1  0
  5  6  2  0
  6  7  1  0
  7  8  1  0
  8  9  1  0
  9 10  1  0
 10 11  2  0
 10 12  2  0
 10 13  1  0
 13 14  2  0
 14 15  1  0
 15 16  2  0
 16 17  1  0
 17 18  2  0
  8  4  2  0
 18 13  1  0
  1 19  1  0
  3 20  1  0
  3 21  1  0
  5 22  1  0
  7 23  1  0
  9 24  1  0
 14 25  1  0
 15 26  1  0
 16 27  1  0
 18 28  1  0
M  END
>  <Energy>  (829) 
615.93092222589098

>  <compound_id>  (829) 
24300

>  <target_id>  (829) 
1

>  <reference_id>  (829) 
123

>  <inspiration_ids>  (829) 
[123, 48]

>  <energy_score>  (829) 
604.6965643725518

>  <distance_score>  (829) 
7.6518550045130285

>  <path>  (829) 
/opt/xchem-fragalysis-2/maxwin/BulkDock/SCRATCH/511017/C24300-P123/C24300-P123.minimised.mol

>  <scratch_subdir>  (829) 
/opt/xchem-fragalysis-2/maxwin/BulkDock/SCRATCH/511017/C24300-P123

>  <fragmenstein_runtime>  (829) 
7.55655837059021

>  <fragmenstein_outcome>  (829) 
too moved

>  <fragmenstein_mode>  (829) 
expansion

>  <fragmenstein_error>  (829) 


$$$$
C24300-P48
     RDKit          3D

 28 29  0  0  0  0  0  0  0  0999 V2000
  -15.2931  -32.4384   16.9612 N   0  0  0  0  0  0  0  0  0  0  0  0
  -15.1048  -32.7292   18.8319 C   0  0  0  0  0  0  0  0  0  0  0  0
  -15.8395  -33.1783   18.7624 N   0  0  0  0  0  0  0  0  0  0  0  0
  -14.0043  -32.2018   19.5051 C   0  0  0  0  0  0  0  0  0  0  0  0
  -13.5429  -32.3504   20.8380 C   0  0  0  0  0  0  0  0  0  0  0  0
  -12.3931  -31.7041   21.0674 N   0  0  0  0  0  0  0  0  0  0  0  0
  -12.1127  -31.1476   19.8622 N   0  0  0  0  0  0  0  0  0  0  0  0
  -13.0813  -31.3591   18.9218 C   0  0  0  0  0  0  0  0  0  0  0  0
  -13.1260  -30.8878   17.4870 N   0  0  0  0  0  0  0  0  0  0  0  0
  -13.5417  -29.2240   17.3368 S   0  0  0  0  0  0  0  0  0  0  0  0
  -12.6805  -28.4731   18.2296 O   0  0  0  0  0  0  0  0  0  0  0  0
  -14.9796  -29.1101   17.4561 O   0  0  0  0  0  0  0  0  0  0  0  0
  -13.0907  -28.7891   15.6668 C   0  0  0  0  0  0  0  0  0  0  0  0
  -11.8534  -28.2128   15.3721 C   0  0  0  0  0  0  0  0  0  0  0  0
  -11.6008  -27.7535   14.0769 C   0  0  0  0  0  0  0  0  0  0  0  0
  -12.6021  -27.8714   13.1258 C   0  0  0  0  0  0  0  0  0  0  0  0
  -13.8151  -28.4086   13.3857 N   0  0  0  0  0  0  0  0  0  0  0  0
  -14.0375  -28.8485   14.6555 C   0  0  0  0  0  0  0  0  0  0  0  0
  -16.1760  -32.9767   16.9644 H   0  0  0  0  0  0  0  0  0  0  0  0
  -16.5849  -33.6574   19.2941 H   0  0  0  0  0  0  0  0  0  0  0  0
  -16.4901  -33.8074   19.2612 H   0  0  0  0  0  0  0  0  0  0  0  0
  -13.9875  -32.9224   21.6418 H   0  0  0  0  0  0  0  0  0  0  0  0
  -11.2481  -30.6353   19.7271 H   0  0  0  0  0  0  0  0  0  0  0  0
  -13.8995  -31.4206   17.0134 H   0  0  0  0  0  0  0  0  0  0  0  0
  -11.0962  -28.0892   16.1424 H   0  0  0  0  0  0  0  0  0  0  0  0
  -10.6474  -27.2997   13.8241 H   0  0  0  0  0  0  0  0  0  0  0  0
  -12.4538  -27.5257   12.1067 H   0  0  0  0  0  0  0  0  0  0  0  0
  -15.0352  -29.2453   14.8306 H   0  0  0  0  0  0  0  0  0  0  0  0
  1  2  2  3
  2  3  1  0
  2  4  1  0
  4  5  1  0
  5  6  2  0
  6  7  1  0
  7  8  1  0
  8  9  1  0
  9 10  1  0
 10 11  2  0
 10 12  2  0
 10 13  1  0
 13 14  2  0
 14 15  1  0
 15 16  2  0
 16 17  1  0
 17 18  2  0
  8  4  2  0
 18 13  1  0
  1 19  1  0
  3 20  1  0
  3 21  1  0
  5 22  1  0
  7 23  1  0
  9 24  1  0
 14 25  1  0
 15 26  1  0
 16 27  1  0
 18 28  1  0
M  END
>  <Energy>  (830) 
632.49259401757263

>  <compound_id>  (830) 
24300

>  <target_id>  (830) 
1

>  <reference_id>  (830) 
48

>  <inspiration_ids>  (830) 
[123, 48]

>  <energy_score>  (830) 
621.2582361642287

>  <distance_score>  (830) 
12.011609123205956

>  <path>  (830) 
/opt/xchem-fragalysis-2/maxwin/BulkDock/SCRATCH/511017/C24300-P48/C24300-P48.minimised.mol

>  <scratch_subdir>  (830) 
/opt/xchem-fragalysis-2/maxwin/BulkDock/SCRATCH/511017/C24300-P48

>  <fragmenstein_runtime>  (830) 
4.6242711544036865

>  <fragmenstein_outcome>  (830) 
too moved

>  <fragmenstein_mode>  (830) 
expansion

>  <fragmenstein_error>  (830) 


$$$$
C24301-P123
     RDKit          3D

 41 42  0  0  0  0  0  0  0  0999 V2000
   -3.7868  -25.7391   24.0691 C   0  0  0  0  0  0  0  0  0  0  0  0
   -5.0574  -24.9818   23.5154 C   0  0  0  0  0  0  0  0  0  0  0  0
   -5.4030  -25.8585   22.4224 C   0  0  0  0  0  0  0  0  0  0  0  0
   -6.2593  -24.1792   24.1386 C   0  0  0  0  0  0  0  0  0  0  0  0
   -6.0268  -23.5661   25.3606 O   0  0  0  0  0  0  0  0  0  0  0  0
   -7.2876  -23.4344   23.2977 C   0  0  0  0  0  0  0  0  0  0  0  0
   -8.9720  -23.3492   23.4332 C   0  0  0  0  0  0  0  0  0  0  0  0
   -9.4595  -24.2718   24.0321 O   0  0  0  0  0  0  0  0  0  0  0  0
   -9.6116  -22.2225   22.7232 N   0  0  0  0  0  0  0  0  0  0  0  0
  -10.9275  -21.9587   22.4647 C   0  0  0  0  0  0  0  0  0  0  0  0
  -12.1385  -22.3172   23.0400 C   0  0  0  0  0  0  0  0  0  0  0  0
  -13.0744  -22.5514   22.1016 N   0  0  0  0  0  0  0  0  0  0  0  0
  -12.4197  -22.4551   20.8513 N   0  0  0  0  0  0  0  0  0  0  0  0
  -12.9358  -22.5827   19.3058 C   0  0  0  0  0  0  0  0  0  0  0  0
  -13.8735  -23.6186   18.1808 C   0  0  0  0  0  0  0  0  0  0  0  0
  -14.6273  -23.0021   17.1361 C   0  0  0  0  0  0  0  0  0  0  0  0
  -15.3301  -23.7555   16.1938 C   0  0  0  0  0  0  0  0  0  0  0  0
  -15.3396  -25.1222   16.3507 C   0  0  0  0  0  0  0  0  0  0  0  0
  -14.7838  -25.7404   17.4119 N   0  0  0  0  0  0  0  0  0  0  0  0
  -14.1159  -24.9681   18.3138 C   0  0  0  0  0  0  0  0  0  0  0  0
  -11.2164  -21.7795   21.1400 C   0  0  0  0  0  0  0  0  0  0  0  0
   -3.3979  -25.4192   25.0277 H   0  0  0  0  0  0  0  0  0  0  0  0
   -3.7829  -26.8287   24.1229 H   0  0  0  0  0  0  0  0  0  0  0  0
   -3.0151  -25.7092   23.2986 H   0  0  0  0  0  0  0  0  0  0  0  0
   -4.7317  -24.2446   22.8501 H   0  0  0  0  0  0  0  0  0  0  0  0
   -5.6550  -25.1702   21.6252 H   0  0  0  0  0  0  0  0  0  0  0  0
   -4.5676  -26.5131   22.2280 H   0  0  0  0  0  0  0  0  0  0  0  0
   -6.1560  -26.5530   22.5818 H   0  0  0  0  0  0  0  0  0  0  0  0
   -6.9542  -24.8794   24.3330 H   0  0  0  0  0  0  0  0  0  0  0  0
   -5.4741  -22.7964   25.1798 H   0  0  0  0  0  0  0  0  0  0  0  0
   -6.9311  -22.4315   23.1709 H   0  0  0  0  0  0  0  0  0  0  0  0
   -7.1551  -23.9949   22.3748 H   0  0  0  0  0  0  0  0  0  0  0  0
   -8.9036  -21.5898   22.4044 H   0  0  0  0  0  0  0  0  0  0  0  0
  -12.3700  -22.5517   24.0706 H   0  0  0  0  0  0  0  0  0  0  0  0
  -12.2474  -21.8667   19.0354 H   0  0  0  0  0  0  0  0  0  0  0  0
  -13.6168  -21.8260   18.9473 H   0  0  0  0  0  0  0  0  0  0  0  0
  -14.6193  -21.9163   17.0309 H   0  0  0  0  0  0  0  0  0  0  0  0
  -15.8384  -23.2798   15.3639 H   0  0  0  0  0  0  0  0  0  0  0  0
  -15.8433  -25.7712   15.6416 H   0  0  0  0  0  0  0  0  0  0  0  0
  -13.8341  -25.4587   19.2201 H   0  0  0  0  0  0  0  0  0  0  0  0
  -10.5207  -21.5737   20.3542 H   0  0  0  0  0  0  0  0  0  0  0  0
  1  2  1  0
  2  3  1  0
  2  4  1  0
  4  5  1  0
  4  6  1  0
  6  7  1  0
  7  8  2  0
  7  9  1  0
  9 10  1  0
 10 11  1  0
 11 12  2  0
 12 13  1  0
 13 14  1  0
 14 15  1  0
 15 16  2  0
 16 17  1  0
 17 18  2  0
 18 19  1  0
 19 20  2  0
 13 21  1  0
 21 10  2  0
 20 15  1  0
  1 22  1  0
  1 23  1  0
  1 24  1  0
  2 25  1  0
  3 26  1  0
  3 27  1  0
  3 28  1  0
  4 29  1  0
  5 30  1  0
  6 31  1  0
  6 32  1  0
  9 33  1  0
 11 34  1  0
 14 35  1  0
 14 36  1  0
 16 37  1  0
 17 38  1  0
 18 39  1  0
 20 40  1  0
 21 41  1  0
M  END
>  <Energy>  (831) 
274.43329737085787

>  <compound_id>  (831) 
24301

>  <target_id>  (831) 
1

>  <reference_id>  (831) 
123

>  <inspiration_ids>  (831) 
[123, 48]

>  <energy_score>  (831) 
184.0356386604792

>  <distance_score>  (831) 
9.342710845547451

>  <path>  (831) 
/opt/xchem-fragalysis-2/maxwin/BulkDock/SCRATCH/511017/C24301-P123/C24301-P123.minimised.mol

>  <scratch_subdir>  (831) 
/opt/xchem-fragalysis-2/maxwin/BulkDock/SCRATCH/511017/C24301-P123

>  <fragmenstein_runtime>  (831) 
10.923380374908447

>  <fragmenstein_outcome>  (831) 
too moved

>  <fragmenstein_mode>  (831) 
expansion

>  <fragmenstein_error>  (831) 


$$$$
C24301-P48
     RDKit          3D

 41 42  0  0  0  0  0  0  0  0999 V2000
  -13.1953  -28.8406   28.6691 C   0  0  0  0  0  0  0  0  0  0  0  0
  -13.7342  -28.2169   27.3751 C   0  0  0  0  0  0  0  0  0  0  0  0
  -12.7013  -27.2230   26.8358 C   0  0  0  0  0  0  0  0  0  0  0  0
  -15.1212  -27.5821   27.5960 C   0  0  0  0  0  0  0  0  0  0  0  0
  -14.9568  -26.4868   28.5053 O   0  0  0  0  0  0  0  0  0  0  0  0
  -15.8158  -27.0033   26.3529 C   0  0  0  0  0  0  0  0  0  0  0  0
  -16.2108  -27.9958   25.2727 C   0  0  0  0  0  0  0  0  0  0  0  0
  -16.0522  -29.1723   25.4262 O   0  0  0  0  0  0  0  0  0  0  0  0
  -16.6680  -27.2450   24.1205 N   0  0  0  0  0  0  0  0  0  0  0  0
  -16.9637  -27.6483   22.8514 C   0  0  0  0  0  0  0  0  0  0  0  0
  -16.9677  -28.9421   22.3156 C   0  0  0  0  0  0  0  0  0  0  0  0
  -17.0809  -28.9368   20.9831 N   0  0  0  0  0  0  0  0  0  0  0  0
  -17.2014  -27.6276   20.6567 N   0  0  0  0  0  0  0  0  0  0  0  0
  -17.5664  -27.2425   19.2708 C   0  0  0  0  0  0  0  0  0  0  0  0
  -16.4729  -27.1136   18.2118 C   0  0  0  0  0  0  0  0  0  0  0  0
  -16.4555  -26.0191   17.3241 C   0  0  0  0  0  0  0  0  0  0  0  0
  -15.5253  -25.9415   16.2817 C   0  0  0  0  0  0  0  0  0  0  0  0
  -14.6341  -26.9828   16.1279 C   0  0  0  0  0  0  0  0  0  0  0  0
  -14.6275  -28.0660   16.9323 N   0  0  0  0  0  0  0  0  0  0  0  0
  -15.5419  -28.1098   17.9421 C   0  0  0  0  0  0  0  0  0  0  0  0
  -17.2658  -26.8352   21.7878 C   0  0  0  0  0  0  0  0  0  0  0  0
  -13.9156  -29.5512   29.0878 H   0  0  0  0  0  0  0  0  0  0  0  0
  -12.2659  -29.3868   28.4734 H   0  0  0  0  0  0  0  0  0  0  0  0
  -12.9808  -28.0825   29.4294 H   0  0  0  0  0  0  0  0  0  0  0  0
  -13.8463  -29.0339   26.6642 H   0  0  0  0  0  0  0  0  0  0  0  0
  -13.0198  -26.8029   25.8801 H   0  0  0  0  0  0  0  0  0  0  0  0
  -11.7354  -27.7113   26.6745 H   0  0  0  0  0  0  0  0  0  0  0  0
  -12.5363  -26.3929   27.5309 H   0  0  0  0  0  0  0  0  0  0  0  0
  -15.7943  -28.3109   28.0644 H   0  0  0  0  0  0  0  0  0  0  0  0
  -14.8898  -26.8603   29.4061 H   0  0  0  0  0  0  0  0  0  0  0  0
  -15.1767  -26.2428   25.8900 H   0  0  0  0  0  0  0  0  0  0  0  0
  -16.7321  -26.4897   26.6737 H   0  0  0  0  0  0  0  0  0  0  0  0
  -16.7594  -26.2676   24.3762 H   0  0  0  0  0  0  0  0  0  0  0  0
  -16.8314  -29.8882   22.8248 H   0  0  0  0  0  0  0  0  0  0  0  0
  -18.3023  -27.9827   18.9328 H   0  0  0  0  0  0  0  0  0  0  0  0
  -18.0947  -26.2858   19.3691 H   0  0  0  0  0  0  0  0  0  0  0  0
  -17.1777  -25.2119   17.4335 H   0  0  0  0  0  0  0  0  0  0  0  0
  -15.5071  -25.0918   15.6083 H   0  0  0  0  0  0  0  0  0  0  0  0
  -13.8884  -26.9809   15.3387 H   0  0  0  0  0  0  0  0  0  0  0  0
  -15.5052  -29.0200   18.5382 H   0  0  0  0  0  0  0  0  0  0  0  0
  -17.4615  -25.7782   21.7118 H   0  0  0  0  0  0  0  0  0  0  0  0
  1  2  1  0
  2  3  1  0
  2  4  1  0
  4  5  1  0
  4  6  1  0
  6  7  1  0
  7  8  2  0
  7  9  1  0
  9 10  1  0
 10 11  1  0
 11 12  2  0
 12 13  1  0
 13 14  1  0
 14 15  1  0
 15 16  2  0
 16 17  1  0
 17 18  2  0
 18 19  1  0
 19 20  2  0
 13 21  1  0
 21 10  2  0
 20 15  1  0
  1 22  1  0
  1 23  1  0
  1 24  1  0
  2 25  1  0
  3 26  1  0
  3 27  1  0
  3 28  1  0
  4 29  1  0
  5 30  1  0
  6 31  1  0
  6 32  1  0
  9 33  1  0
 11 34  1  0
 14 35  1  0
 14 36  1  0
 16 37  1  0
 17 38  1  0
 18 39  1  0
 20 40  1  0
 21 41  1  0
M  END
>  <Energy>  (832) 
45.009770477556444

>  <compound_id>  (832) 
24301

>  <target_id>  (832) 
1

>  <reference_id>  (832) 
48

>  <inspiration_ids>  (832) 
[123, 48]

>  <energy_score>  (832) 
-45.387888232830164

>  <distance_score>  (832) 
9.939967911254003

>  <path>  (832) 
/opt/xchem-fragalysis-2/maxwin/BulkDock/SCRATCH/511017/C24301-P48/C24301-P48.minimised.mol

>  <scratch_subdir>  (832) 
/opt/xchem-fragalysis-2/maxwin/BulkDock/SCRATCH/511017/C24301-P48

>  <fragmenstein_runtime>  (832) 
7.946659326553345

>  <fragmenstein_outcome>  (832) 
too moved

>  <fragmenstein_mode>  (832) 
expansion

>  <fragmenstein_error>  (832) 


$$$$
C24304-P123
     RDKit          3D

 44 45  0  0  0  0  0  0  0  0999 V2000
  -13.0467  -22.4119   22.7687 C   0  0  0  0  0  0  0  0  0  0  0  0
  -11.7050  -22.1906   23.3470 C   0  0  0  0  0  0  0  0  0  0  0  0
  -11.6473  -23.2510   24.5347 C   0  0  0  0  0  0  0  0  0  0  0  0
  -10.4346  -21.7416   22.2729 C   0  0  0  0  0  0  0  0  0  0  0  0
  -10.4027  -21.5788   20.4812 C   0  0  0  0  0  0  0  0  0  0  0  0
   -9.2392  -20.8597   19.3594 O   0  0  0  0  0  0  0  0  0  0  0  0
   -9.0293  -20.8895   17.4974 C   0  0  0  0  0  0  0  0  0  0  0  0
   -9.4273  -21.9140   15.7655 C   0  0  0  0  0  0  0  0  0  0  0  0
  -10.1271  -22.2286   14.4712 N   0  0  0  0  0  0  0  0  0  0  0  0
  -10.3069  -23.5129   13.7610 C   0  0  0  0  0  0  0  0  0  0  0  0
   -9.8707  -24.6004   14.0010 O   0  0  0  0  0  0  0  0  0  0  0  0
  -11.2508  -23.5858   12.6114 C   0  0  0  0  0  0  0  0  0  0  0  0
  -12.6391  -23.7383   12.7959 C   0  0  0  0  0  0  0  0  0  0  0  0
  -12.9698  -24.9955   12.2544 C   0  0  0  0  0  0  0  0  0  0  0  0
  -11.9395  -25.5269   11.6131 N   0  0  0  0  0  0  0  0  0  0  0  0
  -11.0723  -24.4698   11.5160 N   0  0  0  0  0  0  0  0  0  0  0  0
  -10.5757  -24.2096   10.2101 C   0  0  0  0  0  0  0  0  0  0  0  0
  -10.6908  -25.1929    9.2117 C   0  0  0  0  0  0  0  0  0  0  0  0
  -10.4611  -24.8637    7.8810 C   0  0  0  0  0  0  0  0  0  0  0  0
  -10.1350  -23.5539    7.5897 C   0  0  0  0  0  0  0  0  0  0  0  0
   -9.9828  -22.5909    8.5280 N   0  0  0  0  0  0  0  0  0  0  0  0
  -10.1686  -22.9492    9.8289 C   0  0  0  0  0  0  0  0  0  0  0  0
  -12.9406  -22.3700   21.6918 H   0  0  0  0  0  0  0  0  0  0  0  0
  -13.5731  -23.3301   23.0244 H   0  0  0  0  0  0  0  0  0  0  0  0
  -13.7315  -21.7117   23.2299 H   0  0  0  0  0  0  0  0  0  0  0  0
  -11.8296  -21.2318   23.8773 H   0  0  0  0  0  0  0  0  0  0  0  0
  -10.7874  -23.9172   24.4709 H   0  0  0  0  0  0  0  0  0  0  0  0
  -11.7137  -22.7963   25.5323 H   0  0  0  0  0  0  0  0  0  0  0  0
  -12.5616  -23.8376   24.6508 H   0  0  0  0  0  0  0  0  0  0  0  0
   -9.5540  -22.2805   22.6059 H   0  0  0  0  0  0  0  0  0  0  0  0
  -10.2853  -20.7507   22.6571 H   0  0  0  0  0  0  0  0  0  0  0  0
  -11.3629  -21.1186   20.2679 H   0  0  0  0  0  0  0  0  0  0  0  0
  -10.3321  -22.5866   20.1965 H   0  0  0  0  0  0  0  0  0  0  0  0
   -9.5224  -21.7141   17.8216 H   0  0  0  0  0  0  0  0  0  0  0  0
   -9.3973  -19.8975   17.3804 H   0  0  0  0  0  0  0  0  0  0  0  0
   -9.7979  -22.8047   16.1401 H   0  0  0  0  0  0  0  0  0  0  0  0
   -8.4657  -22.2777   15.3281 H   0  0  0  0  0  0  0  0  0  0  0  0
  -10.5730  -21.4925   13.9425 H   0  0  0  0  0  0  0  0  0  0  0  0
  -13.2874  -23.2745   13.5127 H   0  0  0  0  0  0  0  0  0  0  0  0
  -13.8858  -25.5625   12.3590 H   0  0  0  0  0  0  0  0  0  0  0  0
  -11.0023  -26.2070    9.4570 H   0  0  0  0  0  0  0  0  0  0  0  0
  -10.5635  -25.6037    7.0956 H   0  0  0  0  0  0  0  0  0  0  0  0
   -9.9712  -23.2339    6.5645 H   0  0  0  0  0  0  0  0  0  0  0  0
   -9.9925  -22.1549   10.5471 H   0  0  0  0  0  0  0  0  0  0  0  0
  1  2  1  0
  2  3  1  0
  2  4  1  0
  4  5  1  0
  5  6  1  0
  6  7  1  0
  7  8  1  0
  8  9  1  0
  9 10  1  0
 10 11  2  0
 10 12  1  0
 12 13  2  0
 13 14  1  0
 14 15  2  0
 15 16  1  0
 16 17  1  0
 17 18  2  0
 18 19  1  0
 19 20  2  0
 20 21  1  0
 21 22  2  0
 16 12  1  0
 22 17  1  0
  1 23  1  0
  1 24  1  0
  1 25  1  0
  2 26  1  0
  3 27  1  0
  3 28  1  0
  3 29  1  0
  4 30  1  0
  4 31  1  0
  5 32  1  0
  5 33  1  0
  7 34  1  0
  7 35  1  0
  8 36  1  0
  8 37  1  0
  9 38  1  0
 13 39  1  0
 14 40  1  0
 18 41  1  0
 19 42  1  0
 20 43  1  0
 22 44  1  0
M  END
>  <Energy>  (833) 
451.02267010666662

>  <compound_id>  (833) 
24304

>  <target_id>  (833) 
1

>  <reference_id>  (833) 
123

>  <inspiration_ids>  (833) 
[123, 48]

>  <energy_score>  (833) 
389.28273620021906

>  <distance_score>  (833) 
5.2414444642211135

>  <path>  (833) 
/opt/xchem-fragalysis-2/maxwin/BulkDock/SCRATCH/511017/C24304-P123/C24304-P123.minimised.mol

>  <scratch_subdir>  (833) 
/opt/xchem-fragalysis-2/maxwin/BulkDock/SCRATCH/511017/C24304-P123

>  <fragmenstein_runtime>  (833) 
19.335792779922485

>  <fragmenstein_outcome>  (833) 
too moved

>  <fragmenstein_mode>  (833) 
expansion

>  <fragmenstein_error>  (833) 


$$$$
C24304-P48
     RDKit          3D

 44 45  0  0  0  0  0  0  0  0999 V2000
  -13.2442  -22.4406   23.1940 C   0  0  0  0  0  0  0  0  0  0  0  0
  -12.0233  -21.8975   23.7804 C   0  0  0  0  0  0  0  0  0  0  0  0
  -12.1369  -22.5973   25.2343 C   0  0  0  0  0  0  0  0  0  0  0  0
  -10.7120  -21.6215   22.6598 C   0  0  0  0  0  0  0  0  0  0  0  0
  -10.4027  -21.6868   20.7655 C   0  0  0  0  0  0  0  0  0  0  0  0
   -9.1997  -20.9203   19.5877 O   0  0  0  0  0  0  0  0  0  0  0  0
   -8.9889  -20.8935   17.7322 C   0  0  0  0  0  0  0  0  0  0  0  0
   -9.3935  -21.9815   16.0860 C   0  0  0  0  0  0  0  0  0  0  0  0
  -10.0487  -22.3960   14.8259 N   0  0  0  0  0  0  0  0  0  0  0  0
  -10.2029  -23.7380   14.2144 C   0  0  0  0  0  0  0  0  0  0  0  0
   -9.7667  -24.7993   14.5500 O   0  0  0  0  0  0  0  0  0  0  0  0
  -11.0968  -23.8745   13.0804 C   0  0  0  0  0  0  0  0  0  0  0  0
  -12.1522  -23.0866   12.7201 C   0  0  0  0  0  0  0  0  0  0  0  0
  -13.1470  -23.9650   12.2713 C   0  0  0  0  0  0  0  0  0  0  0  0
  -12.6762  -25.1954   12.1288 N   0  0  0  0  0  0  0  0  0  0  0  0
  -11.3340  -25.0348   12.3242 N   0  0  0  0  0  0  0  0  0  0  0  0
  -10.4554  -25.8094   11.5272 C   0  0  0  0  0  0  0  0  0  0  0  0
   -9.0862  -25.5850   11.4812 C   0  0  0  0  0  0  0  0  0  0  0  0
   -8.3265  -26.2436   10.5145 C   0  0  0  0  0  0  0  0  0  0  0  0
   -8.9609  -27.1105    9.6380 C   0  0  0  0  0  0  0  0  0  0  0  0
  -10.2799  -27.3796    9.6792 N   0  0  0  0  0  0  0  0  0  0  0  0
  -10.9971  -26.7267   10.6243 C   0  0  0  0  0  0  0  0  0  0  0  0
  -14.0702  -21.8086   23.5182 H   0  0  0  0  0  0  0  0  0  0  0  0
  -13.0268  -22.5198   22.1403 H   0  0  0  0  0  0  0  0  0  0  0  0
  -13.5666  -23.4140   23.5591 H   0  0  0  0  0  0  0  0  0  0  0  0
  -12.2432  -20.8550   24.0393 H   0  0  0  0  0  0  0  0  0  0  0  0
  -13.1152  -23.0553   25.4339 H   0  0  0  0  0  0  0  0  0  0  0  0
  -11.4116  -23.3938   25.4239 H   0  0  0  0  0  0  0  0  0  0  0  0
  -12.0658  -21.8496   26.0355 H   0  0  0  0  0  0  0  0  0  0  0  0
   -9.8597  -22.1337   23.1109 H   0  0  0  0  0  0  0  0  0  0  0  0
  -10.5442  -20.5916   22.9147 H   0  0  0  0  0  0  0  0  0  0  0  0
  -11.1351  -20.9064   20.6333 H   0  0  0  0  0  0  0  0  0  0  0  0
   -9.4421  -21.7303   21.2340 H   0  0  0  0  0  0  0  0  0  0  0  0
   -7.9053  -20.7715   17.7573 H   0  0  0  0  0  0  0  0  0  0  0  0
   -9.2955  -19.8805   17.5523 H   0  0  0  0  0  0  0  0  0  0  0  0
   -8.4323  -22.3207   15.6343 H   0  0  0  0  0  0  0  0  0  0  0  0
   -9.7783  -22.8568   16.5055 H   0  0  0  0  0  0  0  0  0  0  0  0
  -10.4851  -21.7085   14.2309 H   0  0  0  0  0  0  0  0  0  0  0  0
  -12.2388  -22.0509   12.9595 H   0  0  0  0  0  0  0  0  0  0  0  0
  -14.1895  -23.7795   12.0523 H   0  0  0  0  0  0  0  0  0  0  0  0
   -8.5932  -24.9009   12.1616 H   0  0  0  0  0  0  0  0  0  0  0  0
   -7.2571  -26.0744   10.4394 H   0  0  0  0  0  0  0  0  0  0  0  0
   -8.4031  -27.6310    8.8650 H   0  0  0  0  0  0  0  0  0  0  0  0
  -12.0603  -26.9543   10.5966 H   0  0  0  0  0  0  0  0  0  0  0  0
  1  2  1  0
  2  3  1  0
  2  4  1  0
  4  5  1  0
  5  6  1  0
  6  7  1  0
  7  8  1  0
  8  9  1  0
  9 10  1  0
 10 11  2  0
 10 12  1  0
 12 13  2  0
 13 14  1  0
 14 15  2  0
 15 16  1  0
 16 17  1  0
 17 18  2  0
 18 19  1  0
 19 20  2  0
 20 21  1  0
 21 22  2  0
 16 12  1  0
 22 17  1  0
  1 23  1  0
  1 24  1  0
  1 25  1  0
  2 26  1  0
  3 27  1  0
  3 28  1  0
  3 29  1  0
  4 30  1  0
  4 31  1  0
  5 32  1  0
  5 33  1  0
  7 34  1  0
  7 35  1  0
  8 36  1  0
  8 37  1  0
  9 38  1  0
 13 39  1  0
 14 40  1  0
 18 41  1  0
 19 42  1  0
 20 43  1  0
 22 44  1  0
M  END
>  <Energy>  (834) 
463.47740855950178

>  <compound_id>  (834) 
24304

>  <target_id>  (834) 
1

>  <reference_id>  (834) 
48

>  <inspiration_ids>  (834) 
[123, 48]

>  <energy_score>  (834) 
401.7374746530527

>  <distance_score>  (834) 
5.282707943891345

>  <path>  (834) 
/opt/xchem-fragalysis-2/maxwin/BulkDock/SCRATCH/511017/C24304-P48/C24304-P48.minimised.mol

>  <scratch_subdir>  (834) 
/opt/xchem-fragalysis-2/maxwin/BulkDock/SCRATCH/511017/C24304-P48

>  <fragmenstein_runtime>  (834) 
16.519591569900513

>  <fragmenstein_outcome>  (834) 
too moved

>  <fragmenstein_mode>  (834) 
expansion

>  <fragmenstein_error>  (834) 


$$$$
C24305-P123
     RDKit          3D

 46 47  0  0  0  0  0  0  0  0999 V2000
  -12.8051  -23.8015   12.8589 C   0  0  0  0  0  0  0  0  0  0  0  0
  -11.3514  -23.5952   13.2597 C   0  0  0  0  0  0  0  0  0  0  0  0
  -10.5314  -22.1789   13.0476 C   0  0  0  0  0  0  0  0  0  0  0  0
  -10.1729  -21.4121   14.4591 N   0  0  0  0  0  0  0  0  0  0  0  0
   -9.5567  -21.9842   15.9768 C   0  0  0  0  0  0  0  0  0  0  0  0
   -9.3016  -23.0709   15.8980 O   0  0  0  0  0  0  0  0  0  0  0  0
   -9.2816  -21.3541   17.8847 C   0  0  0  0  0  0  0  0  0  0  0  0
   -9.8739  -22.1101   19.6201 C   0  0  0  0  0  0  0  0  0  0  0  0
   -9.7502  -21.7195   21.0506 C   0  0  0  0  0  0  0  0  0  0  0  0
  -10.5984  -22.1281   22.4355 C   0  0  0  0  0  0  0  0  0  0  0  0
  -10.1134  -23.0128   23.3901 C   0  0  0  0  0  0  0  0  0  0  0  0
  -10.9251  -23.6687   24.4508 C   0  0  0  0  0  0  0  0  0  0  0  0
  -12.2001  -23.2459   24.6834 C   0  0  0  0  0  0  0  0  0  0  0  0
  -12.7529  -22.4595   23.7806 N   0  0  0  0  0  0  0  0  0  0  0  0
  -11.9542  -22.0064   22.7387 C   0  0  0  0  0  0  0  0  0  0  0  0
  -10.1321  -20.8533   20.1266 N   0  0  0  0  0  0  0  0  0  0  0  0
  -11.5996  -20.7523   20.2339 C   0  0  0  0  0  0  0  0  0  0  0  0
   -9.1411  -20.3931   18.8325 N   0  0  0  0  0  0  0  0  0  0  0  0
   -9.8313  -22.3258   11.5780 C   0  0  0  0  0  0  0  0  0  0  0  0
   -8.7822  -23.4957   11.5925 C   0  0  0  0  0  0  0  0  0  0  0  0
   -9.2263  -20.9729   11.2612 C   0  0  0  0  0  0  0  0  0  0  0  0
  -10.6687  -22.8590   10.3610 C   0  0  0  0  0  0  0  0  0  0  0  0
  -13.5183  -23.1072   13.2893 H   0  0  0  0  0  0  0  0  0  0  0  0
  -12.9328  -23.8109   11.7769 H   0  0  0  0  0  0  0  0  0  0  0  0
  -13.1190  -24.7975   13.1965 H   0  0  0  0  0  0  0  0  0  0  0  0
  -10.8587  -24.3841   12.6860 H   0  0  0  0  0  0  0  0  0  0  0  0
  -11.1656  -23.9638   14.2682 H   0  0  0  0  0  0  0  0  0  0  0  0
   -9.6224  -22.6832   13.4122 H   0  0  0  0  0  0  0  0  0  0  0  0
  -10.3054  -20.4231   14.5523 H   0  0  0  0  0  0  0  0  0  0  0  0
  -10.1495  -23.1117   19.8353 H   0  0  0  0  0  0  0  0  0  0  0  0
   -9.0728  -23.3349   23.2864 H   0  0  0  0  0  0  0  0  0  0  0  0
  -10.4793  -24.3763   25.1329 H   0  0  0  0  0  0  0  0  0  0  0  0
  -12.8073  -23.5705   25.5159 H   0  0  0  0  0  0  0  0  0  0  0  0
  -12.6358  -21.6340   22.0288 H   0  0  0  0  0  0  0  0  0  0  0  0
  -11.7351  -20.2759   21.1819 H   0  0  0  0  0  0  0  0  0  0  0  0
  -11.9598  -20.1539   19.3954 H   0  0  0  0  0  0  0  0  0  0  0  0
  -12.0400  -21.7637   20.1788 H   0  0  0  0  0  0  0  0  0  0  0  0
   -9.0154  -24.3087   12.2821 H   0  0  0  0  0  0  0  0  0  0  0  0
   -8.6851  -24.0250   10.6414 H   0  0  0  0  0  0  0  0  0  0  0  0
   -7.8131  -23.1201   11.8696 H   0  0  0  0  0  0  0  0  0  0  0  0
   -9.1566  -20.7901   10.1880 H   0  0  0  0  0  0  0  0  0  0  0  0
   -9.7862  -20.1475   11.6995 H   0  0  0  0  0  0  0  0  0  0  0  0
   -8.2617  -20.8620   11.7271 H   0  0  0  0  0  0  0  0  0  0  0  0
  -11.4260  -22.2219    9.9436 H   0  0  0  0  0  0  0  0  0  0  0  0
  -10.0118  -22.9977    9.4889 H   0  0  0  0  0  0  0  0  0  0  0  0
  -11.1182  -23.8367   10.5536 H   0  0  0  0  0  0  0  0  0  0  0  0
  1  2  1  0
  2  3  1  0
  3  4  1  0
  4  5  1  0
  5  6  2  0
  5  7  1  0
  7  8  1  0
  8  9  2  0
  9 10  1  0
 10 11  2  0
 11 12  1  0
 12 13  2  0
 13 14  1  0
 14 15  2  0
  9 16  1  0
 16 17  1  0
 16 18  1  0
  3 19  1  0
 19 20  1  0
 19 21  1  0
 19 22  1  0
 18  7  2  0
 15 10  1  0
  1 23  1  0
  1 24  1  0
  1 25  1  0
  2 26  1  0
  2 27  1  0
  3 28  1  0
  4 29  1  0
  8 30  1  0
 11 31  1  0
 12 32  1  0
 13 33  1  0
 15 34  1  0
 17 35  1  0
 17 36  1  0
 17 37  1  0
 20 38  1  0
 20 39  1  0
 20 40  1  0
 21 41  1  0
 21 42  1  0
 21 43  1  0
 22 44  1  0
 22 45  1  0
 22 46  1  0
M  END
>  <Energy>  (835) 
717.39564715754352

>  <compound_id>  (835) 
24305

>  <target_id>  (835) 
1

>  <reference_id>  (835) 
123

>  <inspiration_ids>  (835) 
[123, 48]

>  <energy_score>  (835) 
603.2784795686255

>  <distance_score>  (835) 
6.291902162459693

>  <path>  (835) 
/opt/xchem-fragalysis-2/maxwin/BulkDock/SCRATCH/511017/C24305-P123/C24305-P123.minimised.mol

>  <scratch_subdir>  (835) 
/opt/xchem-fragalysis-2/maxwin/BulkDock/SCRATCH/511017/C24305-P123

>  <fragmenstein_runtime>  (835) 
30.411945819854736

>  <fragmenstein_outcome>  (835) 
too moved

>  <fragmenstein_mode>  (835) 
expansion

>  <fragmenstein_error>  (835) 


$$$$
C24305-P48
     RDKit          3D

 46 47  0  0  0  0  0  0  0  0999 V2000
  -11.8384  -26.1728   15.5408 C   0  0  0  0  0  0  0  0  0  0  0  0
  -10.5264  -25.9576   14.8066 C   0  0  0  0  0  0  0  0  0  0  0  0
  -10.2063  -24.5467   14.2333 C   0  0  0  0  0  0  0  0  0  0  0  0
  -10.1062  -23.4883   15.2857 N   0  0  0  0  0  0  0  0  0  0  0  0
   -9.1128  -22.4118   15.4972 C   0  0  0  0  0  0  0  0  0  0  0  0
   -8.1970  -22.1035   14.8048 O   0  0  0  0  0  0  0  0  0  0  0  0
   -9.3390  -21.3288   17.0561 C   0  0  0  0  0  0  0  0  0  0  0  0
   -8.7617  -20.5168   18.5056 C   0  0  0  0  0  0  0  0  0  0  0  0
   -9.2608  -21.0106   20.2376 C   0  0  0  0  0  0  0  0  0  0  0  0
  -10.1481  -21.6262   21.6925 C   0  0  0  0  0  0  0  0  0  0  0  0
  -11.3632  -22.2879   22.1439 C   0  0  0  0  0  0  0  0  0  0  0  0
  -12.2519  -22.1134   23.2127 C   0  0  0  0  0  0  0  0  0  0  0  0
  -11.8903  -21.1110   23.9672 C   0  0  0  0  0  0  0  0  0  0  0  0
  -10.7141  -20.5608   23.7076 N   0  0  0  0  0  0  0  0  0  0  0  0
   -9.8297  -21.1007   22.7874 C   0  0  0  0  0  0  0  0  0  0  0  0
  -10.0486  -22.0195   19.7583 N   0  0  0  0  0  0  0  0  0  0  0  0
  -11.7425  -21.6505   20.0404 C   0  0  0  0  0  0  0  0  0  0  0  0
   -9.1659  -21.4877   18.4524 N   0  0  0  0  0  0  0  0  0  0  0  0
  -10.9014  -24.2055   12.8618 C   0  0  0  0  0  0  0  0  0  0  0  0
  -12.4285  -24.3296   12.8480 C   0  0  0  0  0  0  0  0  0  0  0  0
  -10.3801  -25.1722   11.7630 C   0  0  0  0  0  0  0  0  0  0  0  0
  -10.5004  -22.7914   12.4374 C   0  0  0  0  0  0  0  0  0  0  0  0
  -12.7128  -25.8620   14.9717 H   0  0  0  0  0  0  0  0  0  0  0  0
  -11.9594  -27.2387   15.7644 H   0  0  0  0  0  0  0  0  0  0  0  0
  -11.8500  -25.6544   16.4969 H   0  0  0  0  0  0  0  0  0  0  0  0
  -10.4628  -26.7051   14.0101 H   0  0  0  0  0  0  0  0  0  0  0  0
   -9.7229  -26.2286   15.5043 H   0  0  0  0  0  0  0  0  0  0  0  0
   -9.1855  -24.6610   13.9068 H   0  0  0  0  0  0  0  0  0  0  0  0
  -10.6758  -23.5413   16.0615 H   0  0  0  0  0  0  0  0  0  0  0  0
   -7.8180  -19.9388   18.3314 H   0  0  0  0  0  0  0  0  0  0  0  0
  -11.6200  -23.1536   21.5630 H   0  0  0  0  0  0  0  0  0  0  0  0
  -13.1525  -22.6745   23.3882 H   0  0  0  0  0  0  0  0  0  0  0  0
  -12.4473  -20.7931   24.8193 H   0  0  0  0  0  0  0  0  0  0  0  0
   -8.7941  -20.7530   22.6202 H   0  0  0  0  0  0  0  0  0  0  0  0
  -11.6664  -20.6959   20.5540 H   0  0  0  0  0  0  0  0  0  0  0  0
  -12.3809  -21.7072   19.1794 H   0  0  0  0  0  0  0  0  0  0  0  0
  -12.3295  -22.4973   20.3799 H   0  0  0  0  0  0  0  0  0  0  0  0
  -12.8865  -23.7837   13.6745 H   0  0  0  0  0  0  0  0  0  0  0  0
  -12.8481  -23.9271   11.9190 H   0  0  0  0  0  0  0  0  0  0  0  0
  -12.7514  -25.3737   12.9008 H   0  0  0  0  0  0  0  0  0  0  0  0
  -10.8363  -24.9454   10.7938 H   0  0  0  0  0  0  0  0  0  0  0  0
   -9.2930  -25.1007   11.6474 H   0  0  0  0  0  0  0  0  0  0  0  0
  -10.6284  -26.2157   11.9763 H   0  0  0  0  0  0  0  0  0  0  0  0
  -10.7226  -22.6256   11.3839 H   0  0  0  0  0  0  0  0  0  0  0  0
  -11.0134  -22.0296   13.0293 H   0  0  0  0  0  0  0  0  0  0  0  0
   -9.4258  -22.6291   12.5568 H   0  0  0  0  0  0  0  0  0  0  0  0
  1  2  1  0
  2  3  1  0
  3  4  1  0
  4  5  1  0
  5  6  2  0
  5  7  1  0
  7  8  1  0
  8  9  2  0
  9 10  1  0
 10 11  2  0
 11 12  1  0
 12 13  2  0
 13 14  1  0
 14 15  2  0
  9 16  1  0
 16 17  1  0
 16 18  1  0
  3 19  1  0
 19 20  1  0
 19 21  1  0
 19 22  1  0
 18  7  2  0
 15 10  1  0
  1 23  1  0
  1 24  1  0
  1 25  1  0
  2 26  1  0
  2 27  1  0
  3 28  1  0
  4 29  1  0
  8 30  1  0
 11 31  1  0
 12 32  1  0
 13 33  1  0
 15 34  1  0
 17 35  1  0
 17 36  1  0
 17 37  1  0
 20 38  1  0
 20 39  1  0
 20 40  1  0
 21 41  1  0
 21 42  1  0
 21 43  1  0
 22 44  1  0
 22 45  1  0
 22 46  1  0
M  END
>  <Energy>  (836) 
916.13629671067338

>  <compound_id>  (836) 
24305

>  <target_id>  (836) 
1

>  <reference_id>  (836) 
48

>  <inspiration_ids>  (836) 
[123, 48]

>  <energy_score>  (836) 
802.0191291217482

>  <distance_score>  (836) 
6.572883955969232

>  <path>  (836) 
/opt/xchem-fragalysis-2/maxwin/BulkDock/SCRATCH/511017/C24305-P48/C24305-P48.minimised.mol

>  <scratch_subdir>  (836) 
/opt/xchem-fragalysis-2/maxwin/BulkDock/SCRATCH/511017/C24305-P48

>  <fragmenstein_runtime>  (836) 
29.963988780975342

>  <fragmenstein_outcome>  (836) 
too moved

>  <fragmenstein_mode>  (836) 
expansion

>  <fragmenstein_error>  (836) 


$$$$
C24306-P123
     RDKit          3D

 34 35  0  0  0  0  0  0  0  0999 V2000
  -12.1357  -23.8099   26.2528 C   0  0  0  0  0  0  0  0  0  0  0  0
  -13.0328  -23.6333   25.1369 N   0  0  0  0  0  0  0  0  0  0  0  0
  -12.8783  -22.7863   24.0680 C   0  0  0  0  0  0  0  0  0  0  0  0
  -13.9832  -22.9333   23.2473 C   0  0  0  0  0  0  0  0  0  0  0  0
  -14.3244  -22.1421   22.0045 C   0  0  0  0  0  0  0  0  0  0  0  0
  -15.7596  -22.3400   21.7202 N   0  0  0  0  0  0  0  0  0  0  0  0
  -13.4377  -22.3107   20.6597 C   0  0  0  0  0  0  0  0  0  0  0  0
  -12.4547  -21.6253   20.5656 O   0  0  0  0  0  0  0  0  0  0  0  0
  -14.0457  -23.2232   19.7182 N   0  0  0  0  0  0  0  0  0  0  0  0
  -13.7205  -23.5198   18.3501 O   0  0  0  0  0  0  0  0  0  0  0  0
  -14.3545  -24.6308   17.6187 C   0  0  0  0  0  0  0  0  0  0  0  0
  -14.1251  -24.9782   16.1339 C   0  0  0  0  0  0  0  0  0  0  0  0
  -14.8648  -24.3603   15.1087 C   0  0  0  0  0  0  0  0  0  0  0  0
  -14.6443  -24.6990   13.7719 C   0  0  0  0  0  0  0  0  0  0  0  0
  -13.6988  -25.6667   13.4885 C   0  0  0  0  0  0  0  0  0  0  0  0
  -12.9888  -26.3100   14.4381 N   0  0  0  0  0  0  0  0  0  0  0  0
  -13.2164  -25.9579   15.7301 C   0  0  0  0  0  0  0  0  0  0  0  0
  -14.7326  -23.9405   23.9315 C   0  0  0  0  0  0  0  0  0  0  0  0
  -14.1203  -24.4243   25.0202 N   0  0  0  0  0  0  0  0  0  0  0  0
  -11.8910  -22.8331   26.6729 H   0  0  0  0  0  0  0  0  0  0  0  0
  -12.6239  -24.4207   27.0169 H   0  0  0  0  0  0  0  0  0  0  0  0
  -11.2373  -24.3140   25.8900 H   0  0  0  0  0  0  0  0  0  0  0  0
  -12.0413  -22.1128   23.9854 H   0  0  0  0  0  0  0  0  0  0  0  0
  -14.2160  -21.0796   22.2681 H   0  0  0  0  0  0  0  0  0  0  0  0
  -16.0486  -21.6158   21.0580 H   0  0  0  0  0  0  0  0  0  0  0  0
  -16.2738  -22.0965   22.5716 H   0  0  0  0  0  0  0  0  0  0  0  0
  -14.9021  -23.5622   20.1021 H   0  0  0  0  0  0  0  0  0  0  0  0
  -14.0991  -25.5504   18.1536 H   0  0  0  0  0  0  0  0  0  0  0  0
  -15.4149  -24.4015   17.5635 H   0  0  0  0  0  0  0  0  0  0  0  0
  -15.5959  -23.5907   15.3513 H   0  0  0  0  0  0  0  0  0  0  0  0
  -15.1953  -24.2127   12.9755 H   0  0  0  0  0  0  0  0  0  0  0  0
  -13.4828  -25.9631   12.4666 H   0  0  0  0  0  0  0  0  0  0  0  0
  -12.6095  -26.4954   16.4561 H   0  0  0  0  0  0  0  0  0  0  0  0
  -15.6931  -24.3563   23.6525 H   0  0  0  0  0  0  0  0  0  0  0  0
  1  2  1  0
  2  3  1  0
  3  4  2  0
  4  5  1  0
  5  6  1  0
  5  7  1  0
  7  8  2  0
  7  9  1  0
  9 10  1  0
 10 11  1  0
 11 12  1  0
 12 13  2  0
 13 14  1  0
 14 15  2  0
 15 16  1  0
 16 17  2  0
  4 18  1  0
 18 19  2  0
 19  2  1  0
 17 12  1  0
  1 20  1  0
  1 21  1  0
  1 22  1  0
  3 23  1  0
  5 24  1  0
  6 25  1  0
  6 26  1  0
  9 27  1  0
 11 28  1  0
 11 29  1  0
 13 30  1  0
 14 31  1  0
 15 32  1  0
 17 33  1  0
 18 34  1  0
M  END
>  <Energy>  (837) 
138.08786642799521

>  <compound_id>  (837) 
24306

>  <target_id>  (837) 
1

>  <reference_id>  (837) 
123

>  <inspiration_ids>  (837) 
[123, 48]

>  <energy_score>  (837) 
6.80487213760324

>  <distance_score>  (837) 
8.082642881070923

>  <path>  (837) 
/opt/xchem-fragalysis-2/maxwin/BulkDock/SCRATCH/511017/C24306-P123/C24306-P123.minimised.mol

>  <scratch_subdir>  (837) 
/opt/xchem-fragalysis-2/maxwin/BulkDock/SCRATCH/511017/C24306-P123

>  <fragmenstein_runtime>  (837) 
11.090589761734009

>  <fragmenstein_outcome>  (837) 
too moved

>  <fragmenstein_mode>  (837) 
expansion

>  <fragmenstein_error>  (837) 


$$$$
C24306-P48
     RDKit          3D

 34 35  0  0  0  0  0  0  0  0999 V2000
  -11.8737  -24.3403   27.4301 C   0  0  0  0  0  0  0  0  0  0  0  0
  -12.7592  -24.1647   26.3026 N   0  0  0  0  0  0  0  0  0  0  0  0
  -12.8174  -23.0789   25.4812 C   0  0  0  0  0  0  0  0  0  0  0  0
  -13.6329  -23.3837   24.3936 C   0  0  0  0  0  0  0  0  0  0  0  0
  -13.8867  -22.5818   23.1097 C   0  0  0  0  0  0  0  0  0  0  0  0
  -13.6930  -21.1548   23.4469 N   0  0  0  0  0  0  0  0  0  0  0  0
  -12.9742  -22.8636   21.6277 C   0  0  0  0  0  0  0  0  0  0  0  0
  -12.2452  -21.9730   21.2515 O   0  0  0  0  0  0  0  0  0  0  0  0
  -13.3341  -24.2088   20.9653 N   0  0  0  0  0  0  0  0  0  0  0  0
  -12.8969  -24.7876   19.7418 O   0  0  0  0  0  0  0  0  0  0  0  0
  -13.8145  -25.5497   18.8280 C   0  0  0  0  0  0  0  0  0  0  0  0
  -13.3720  -25.9781   17.4017 C   0  0  0  0  0  0  0  0  0  0  0  0
  -12.2294  -26.7262   17.1307 C   0  0  0  0  0  0  0  0  0  0  0  0
  -11.8642  -27.0145   15.8109 C   0  0  0  0  0  0  0  0  0  0  0  0
  -12.6817  -26.5771   14.7826 C   0  0  0  0  0  0  0  0  0  0  0  0
  -13.8262  -25.8977   14.9889 N   0  0  0  0  0  0  0  0  0  0  0  0
  -14.1420  -25.6217   16.2818 C   0  0  0  0  0  0  0  0  0  0  0  0
  -14.1895  -24.6351   24.8124 C   0  0  0  0  0  0  0  0  0  0  0  0
  -13.5732  -25.1672   25.8897 N   0  0  0  0  0  0  0  0  0  0  0  0
  -11.6182  -23.3612   27.8427 H   0  0  0  0  0  0  0  0  0  0  0  0
  -12.3757  -24.9479   28.1865 H   0  0  0  0  0  0  0  0  0  0  0  0
  -10.9739  -24.8469   27.0731 H   0  0  0  0  0  0  0  0  0  0  0  0
  -12.2574  -22.1897   25.7116 H   0  0  0  0  0  0  0  0  0  0  0  0
  -14.9479  -22.6755   22.8911 H   0  0  0  0  0  0  0  0  0  0  0  0
  -14.0053  -21.0009   24.4148 H   0  0  0  0  0  0  0  0  0  0  0  0
  -12.6911  -20.9706   23.4241 H   0  0  0  0  0  0  0  0  0  0  0  0
  -13.9100  -24.7512   21.5977 H   0  0  0  0  0  0  0  0  0  0  0  0
  -14.1712  -26.4410   19.3529 H   0  0  0  0  0  0  0  0  0  0  0  0
  -14.6367  -24.8843   18.5636 H   0  0  0  0  0  0  0  0  0  0  0  0
  -11.5966  -27.0492   17.9465 H   0  0  0  0  0  0  0  0  0  0  0  0
  -10.9496  -27.5575   15.5967 H   0  0  0  0  0  0  0  0  0  0  0  0
  -12.4318  -26.7707   13.7440 H   0  0  0  0  0  0  0  0  0  0  0  0
  -15.0621  -25.0497   16.3921 H   0  0  0  0  0  0  0  0  0  0  0  0
  -14.9564  -25.2176   24.3173 H   0  0  0  0  0  0  0  0  0  0  0  0
  1  2  1  0
  2  3  1  0
  3  4  2  0
  4  5  1  0
  5  6  1  0
  5  7  1  0
  7  8  2  0
  7  9  1  0
  9 10  1  0
 10 11  1  0
 11 12  1  0
 12 13  2  0
 13 14  1  0
 14 15  2  0
 15 16  1  0
 16 17  2  0
  4 18  1  0
 18 19  2  0
 19  2  1  0
 17 12  1  0
  1 20  1  0
  1 21  1  0
  1 22  1  0
  3 23  1  0
  5 24  1  0
  6 25  1  0
  6 26  1  0
  9 27  1  0
 11 28  1  0
 11 29  1  0
 13 30  1  0
 14 31  1  0
 15 32  1  0
 17 33  1  0
 18 34  1  0
M  END
>  <Energy>  (838) 
161.16966271539661

>  <compound_id>  (838) 
24306

>  <target_id>  (838) 
1

>  <reference_id>  (838) 
48

>  <inspiration_ids>  (838) 
[123, 48]

>  <energy_score>  (838) 
29.886668425005013

>  <distance_score>  (838) 
7.551590911544593

>  <path>  (838) 
/opt/xchem-fragalysis-2/maxwin/BulkDock/SCRATCH/511017/C24306-P48/C24306-P48.minimised.mol

>  <scratch_subdir>  (838) 
/opt/xchem-fragalysis-2/maxwin/BulkDock/SCRATCH/511017/C24306-P48

>  <fragmenstein_runtime>  (838) 
6.878235101699829

>  <fragmenstein_outcome>  (838) 
too moved

>  <fragmenstein_mode>  (838) 
expansion

>  <fragmenstein_error>  (838) 


$$$$
C24315-P123
     RDKit          3D

 44 45  0  0  0  0  0  0  0  0999 V2000
  -12.5059  -21.4815   33.1702 C   0  0  0  0  0  0  0  0  0  0  0  0
  -12.0244  -22.7347   32.5448 N   0  0  0  0  0  0  0  0  0  0  0  0
  -13.0124  -23.3317   33.5011 C   0  0  0  0  0  0  0  0  0  0  0  0
  -12.2297  -23.2636   31.2146 C   0  0  0  0  0  0  0  0  0  0  0  0
  -12.9169  -22.8611   30.3100 O   0  0  0  0  0  0  0  0  0  0  0  0
  -11.4743  -24.5817   31.1149 C   0  0  0  0  0  0  0  0  0  0  0  0
  -11.2182  -25.0836   29.7698 N   0  0  0  0  0  0  0  0  0  0  0  0
  -12.0463  -25.1741   28.6716 C   0  0  0  0  0  0  0  0  0  0  0  0
  -11.3855  -25.9365   27.7310 C   0  0  0  0  0  0  0  0  0  0  0  0
  -11.8133  -26.2253   26.4552 N   0  0  0  0  0  0  0  0  0  0  0  0
  -11.2714  -27.1316   25.4478 C   0  0  0  0  0  0  0  0  0  0  0  0
  -10.3658  -27.9114   25.5041 O   0  0  0  0  0  0  0  0  0  0  0  0
  -12.0133  -26.9002   24.0205 C   0  0  0  0  0  0  0  0  0  0  0  0
  -11.5679  -27.6810   22.2272 C   0  0  0  0  0  0  0  0  0  0  0  0
  -11.3289  -28.0513   19.9900 C   0  0  0  0  0  0  0  0  0  0  0  0
  -12.2714  -28.0787   18.2145 C   0  0  0  0  0  0  0  0  0  0  0  0
  -12.8064  -29.2848   17.6583 C   0  0  0  0  0  0  0  0  0  0  0  0
  -13.2836  -29.3382   16.3381 C   0  0  0  0  0  0  0  0  0  0  0  0
  -13.1934  -28.2120   15.5438 C   0  0  0  0  0  0  0  0  0  0  0  0
  -12.6396  -27.0688   15.9684 N   0  0  0  0  0  0  0  0  0  0  0  0
  -12.1759  -27.0523   17.2524 C   0  0  0  0  0  0  0  0  0  0  0  0
  -10.1687  -26.2460   28.3545 C   0  0  0  0  0  0  0  0  0  0  0  0
  -10.0493  -25.7229   29.5710 N   0  0  0  0  0  0  0  0  0  0  0  0
  -13.5170  -21.2099   32.8363 H   0  0  0  0  0  0  0  0  0  0  0  0
  -12.3745  -21.3455   34.2518 H   0  0  0  0  0  0  0  0  0  0  0  0
  -11.8413  -20.7295   32.7353 H   0  0  0  0  0  0  0  0  0  0  0  0
  -12.7728  -23.1699   34.5611 H   0  0  0  0  0  0  0  0  0  0  0  0
  -14.0656  -23.1303   33.2694 H   0  0  0  0  0  0  0  0  0  0  0  0
  -12.8730  -24.4108   33.4101 H   0  0  0  0  0  0  0  0  0  0  0  0
  -12.0286  -25.3753   31.6214 H   0  0  0  0  0  0  0  0  0  0  0  0
  -10.5005  -24.4698   31.6078 H   0  0  0  0  0  0  0  0  0  0  0  0
  -13.0118  -24.6913   28.6711 H   0  0  0  0  0  0  0  0  0  0  0  0
  -12.6377  -25.7695   26.0835 H   0  0  0  0  0  0  0  0  0  0  0  0
  -13.0961  -26.9102   24.2323 H   0  0  0  0  0  0  0  0  0  0  0  0
  -11.5693  -25.9177   24.1737 H   0  0  0  0  0  0  0  0  0  0  0  0
  -11.0522  -26.9155   21.6969 H   0  0  0  0  0  0  0  0  0  0  0  0
  -12.4647  -28.3142   22.3787 H   0  0  0  0  0  0  0  0  0  0  0  0
  -10.5812  -27.2727   19.8305 H   0  0  0  0  0  0  0  0  0  0  0  0
  -10.9740  -29.1348   19.8235 H   0  0  0  0  0  0  0  0  0  0  0  0
  -12.8438  -30.2096   18.2304 H   0  0  0  0  0  0  0  0  0  0  0  0
  -13.7023  -30.2562   15.9403 H   0  0  0  0  0  0  0  0  0  0  0  0
  -13.5517  -28.2101   14.5196 H   0  0  0  0  0  0  0  0  0  0  0  0
  -11.6339  -26.1611   17.4536 H   0  0  0  0  0  0  0  0  0  0  0  0
   -9.3332  -26.8000   27.9592 H   0  0  0  0  0  0  0  0  0  0  0  0
  1  2  1  0
  2  3  1  0
  2  4  1  0
  4  5  2  0
  4  6  1  0
  6  7  1  0
  7  8  1  0
  8  9  2  0
  9 10  1  0
 10 11  1  0
 11 12  2  0
 11 13  1  0
 13 14  1  0
 14 15  1  0
 15 16  1  0
 16 17  2  0
 17 18  1  0
 18 19  2  0
 19 20  1  0
 20 21  2  0
  9 22  1  0
 22 23  2  0
 23  7  1  0
 21 16  1  0
  1 24  1  0
  1 25  1  0
  1 26  1  0
  3 27  1  0
  3 28  1  0
  3 29  1  0
  6 30  1  0
  6 31  1  0
  8 32  1  0
 10 33  1  0
 13 34  1  0
 13 35  1  0
 14 36  1  0
 14 37  1  0
 15 38  1  0
 15 39  1  0
 17 40  1  0
 18 41  1  0
 19 42  1  0
 21 43  1  0
 22 44  1  0
M  END
>  <Energy>  (839) 
527.05028216101175

>  <compound_id>  (839) 
24315

>  <target_id>  (839) 
1

>  <reference_id>  (839) 
123

>  <inspiration_ids>  (839) 
[123, 48]

>  <energy_score>  (839) 
482.4659486961158

>  <distance_score>  (839) 
6.579281837089135

>  <path>  (839) 
/opt/xchem-fragalysis-2/maxwin/BulkDock/SCRATCH/511017/C24315-P123/C24315-P123.minimised.mol

>  <scratch_subdir>  (839) 
/opt/xchem-fragalysis-2/maxwin/BulkDock/SCRATCH/511017/C24315-P123

>  <fragmenstein_runtime>  (839) 
24.406824827194214

>  <fragmenstein_outcome>  (839) 
too moved

>  <fragmenstein_mode>  (839) 
expansion

>  <fragmenstein_error>  (839) 


$$$$
C24315-P48
     RDKit          3D

 44 45  0  0  0  0  0  0  0  0999 V2000
  -12.7392  -24.9320   31.1609 C   0  0  0  0  0  0  0  0  0  0  0  0
  -12.1721  -25.0587   29.7848 N   0  0  0  0  0  0  0  0  0  0  0  0
  -11.0641  -25.7345   30.5400 C   0  0  0  0  0  0  0  0  0  0  0  0
  -11.6337  -24.0640   28.8973 C   0  0  0  0  0  0  0  0  0  0  0  0
  -11.4211  -22.8921   29.0725 O   0  0  0  0  0  0  0  0  0  0  0  0
  -11.3935  -24.6621   27.5271 C   0  0  0  0  0  0  0  0  0  0  0  0
  -12.4834  -24.3773   26.6104 N   0  0  0  0  0  0  0  0  0  0  0  0
  -12.6853  -23.2334   25.8782 C   0  0  0  0  0  0  0  0  0  0  0  0
  -13.6945  -23.4763   24.9710 C   0  0  0  0  0  0  0  0  0  0  0  0
  -14.1949  -22.6880   23.9399 N   0  0  0  0  0  0  0  0  0  0  0  0
  -13.5536  -21.6567   23.1220 C   0  0  0  0  0  0  0  0  0  0  0  0
  -12.4545  -21.1749   23.1880 O   0  0  0  0  0  0  0  0  0  0  0  0
  -14.5535  -21.1294   22.0215 C   0  0  0  0  0  0  0  0  0  0  0  0
  -14.0742  -21.0602   20.5227 C   0  0  0  0  0  0  0  0  0  0  0  0
  -14.7493  -22.0917   19.5445 C   0  0  0  0  0  0  0  0  0  0  0  0
  -15.0223  -21.9202   18.0544 C   0  0  0  0  0  0  0  0  0  0  0  0
  -15.2011  -20.7039   17.4073 C   0  0  0  0  0  0  0  0  0  0  0  0
  -15.5694  -20.6764   16.0541 C   0  0  0  0  0  0  0  0  0  0  0  0
  -15.7493  -21.8722   15.3750 C   0  0  0  0  0  0  0  0  0  0  0  0
  -15.5947  -23.0772   15.9516 N   0  0  0  0  0  0  0  0  0  0  0  0
  -15.2459  -23.0659   17.2659 C   0  0  0  0  0  0  0  0  0  0  0  0
  -14.0931  -24.8018   25.3012 C   0  0  0  0  0  0  0  0  0  0  0  0
  -13.3408  -25.3764   26.2575 N   0  0  0  0  0  0  0  0  0  0  0  0
  -12.1952  -24.2372   31.8186 H   0  0  0  0  0  0  0  0  0  0  0  0
  -13.6954  -24.4153   31.0026 H   0  0  0  0  0  0  0  0  0  0  0  0
  -13.0357  -25.8797   31.6333 H   0  0  0  0  0  0  0  0  0  0  0  0
  -11.3473  -26.6903   31.0064 H   0  0  0  0  0  0  0  0  0  0  0  0
  -10.4798  -25.0744   31.1985 H   0  0  0  0  0  0  0  0  0  0  0  0
  -10.3367  -26.0349   29.7783 H   0  0  0  0  0  0  0  0  0  0  0  0
  -11.2681  -25.7488   27.5771 H   0  0  0  0  0  0  0  0  0  0  0  0
  -10.4758  -24.2438   27.1031 H   0  0  0  0  0  0  0  0  0  0  0  0
  -12.1272  -22.3373   26.0892 H   0  0  0  0  0  0  0  0  0  0  0  0
  -15.1566  -22.7889   23.6506 H   0  0  0  0  0  0  0  0  0  0  0  0
  -15.5212  -21.6355   22.0861 H   0  0  0  0  0  0  0  0  0  0  0  0
  -14.7588  -20.0963   22.3381 H   0  0  0  0  0  0  0  0  0  0  0  0
  -14.3090  -20.0536   20.1576 H   0  0  0  0  0  0  0  0  0  0  0  0
  -12.9856  -21.1687   20.4671 H   0  0  0  0  0  0  0  0  0  0  0  0
  -14.1160  -22.9853   19.5970 H   0  0  0  0  0  0  0  0  0  0  0  0
  -15.7409  -22.3252   19.9529 H   0  0  0  0  0  0  0  0  0  0  0  0
  -15.0619  -19.7666   17.9375 H   0  0  0  0  0  0  0  0  0  0  0  0
  -15.7013  -19.7296   15.5425 H   0  0  0  0  0  0  0  0  0  0  0  0
  -16.0253  -21.8867   14.3259 H   0  0  0  0  0  0  0  0  0  0  0  0
  -15.1480  -24.0584   17.7013 H   0  0  0  0  0  0  0  0  0  0  0  0
  -14.8872  -25.3868   24.8570 H   0  0  0  0  0  0  0  0  0  0  0  0
  1  2  1  0
  2  3  1  0
  2  4  1  0
  4  5  2  0
  4  6  1  0
  6  7  1  0
  7  8  1  0
  8  9  2  0
  9 10  1  0
 10 11  1  0
 11 12  2  0
 11 13  1  0
 13 14  1  0
 14 15  1  0
 15 16  1  0
 16 17  2  0
 17 18  1  0
 18 19  2  0
 19 20  1  0
 20 21  2  0
  9 22  1  0
 22 23  2  0
 23  7  1  0
 21 16  1  0
  1 24  1  0
  1 25  1  0
  1 26  1  0
  3 27  1  0
  3 28  1  0
  3 29  1  0
  6 30  1  0
  6 31  1  0
  8 32  1  0
 10 33  1  0
 13 34  1  0
 13 35  1  0
 14 36  1  0
 14 37  1  0
 15 38  1  0
 15 39  1  0
 17 40  1  0
 18 41  1  0
 19 42  1  0
 21 43  1  0
 22 44  1  0
M  END
>  <Energy>  (840) 
117.74361529352332

>  <compound_id>  (840) 
24315

>  <target_id>  (840) 
1

>  <reference_id>  (840) 
48

>  <inspiration_ids>  (840) 
[123, 48]

>  <energy_score>  (840) 
73.15928182862149

>  <distance_score>  (840) 
8.312520687535219

>  <path>  (840) 
/opt/xchem-fragalysis-2/maxwin/BulkDock/SCRATCH/511017/C24315-P48/C24315-P48.minimised.mol

>  <scratch_subdir>  (840) 
/opt/xchem-fragalysis-2/maxwin/BulkDock/SCRATCH/511017/C24315-P48

>  <fragmenstein_runtime>  (840) 
5.4715352058410645

>  <fragmenstein_outcome>  (840) 
too moved

>  <fragmenstein_mode>  (840) 
expansion

>  <fragmenstein_error>  (840) 


$$$$
C24316-P123
     RDKit          3D

 46 47  0  0  0  0  0  0  0  0999 V2000
  -12.1585  -26.8847   29.4602 C   0  0  0  0  0  0  0  0  0  0  0  0
  -11.3595  -25.5841   29.5349 C   0  0  0  0  0  0  0  0  0  0  0  0
  -10.1349  -25.8810   30.4066 C   0  0  0  0  0  0  0  0  0  0  0  0
  -12.1261  -24.4258   30.1777 C   0  0  0  0  0  0  0  0  0  0  0  0
  -10.9080  -25.1996   28.1224 C   0  0  0  0  0  0  0  0  0  0  0  0
  -11.9351  -24.7221   27.2100 N   0  0  0  0  0  0  0  0  0  0  0  0
  -11.8119  -23.5867   26.4669 C   0  0  0  0  0  0  0  0  0  0  0  0
  -12.6363  -23.7112   25.3821 C   0  0  0  0  0  0  0  0  0  0  0  0
  -12.5921  -22.9866   24.2001 N   0  0  0  0  0  0  0  0  0  0  0  0
  -13.6369  -22.6419   23.2583 C   0  0  0  0  0  0  0  0  0  0  0  0
  -14.8188  -22.8268   23.3028 O   0  0  0  0  0  0  0  0  0  0  0  0
  -13.0228  -22.0098   21.9294 C   0  0  0  0  0  0  0  0  0  0  0  0
  -12.7094  -22.7213   20.4740 C   0  0  0  0  0  0  0  0  0  0  0  0
  -13.2709  -24.3139   19.6221 C   0  0  0  0  0  0  0  0  0  0  0  0
  -13.7962  -24.9279   18.0541 C   0  0  0  0  0  0  0  0  0  0  0  0
  -13.6991  -26.2628   17.5936 C   0  0  0  0  0  0  0  0  0  0  0  0
  -14.1080  -26.6980   16.3130 C   0  0  0  0  0  0  0  0  0  0  0  0
  -14.6553  -25.7872   15.4493 C   0  0  0  0  0  0  0  0  0  0  0  0
  -14.7742  -24.5046   15.7863 N   0  0  0  0  0  0  0  0  0  0  0  0
  -14.3215  -24.1487   17.0390 C   0  0  0  0  0  0  0  0  0  0  0  0
  -13.4504  -24.8122   25.7441 C   0  0  0  0  0  0  0  0  0  0  0  0
  -12.9602  -25.4920   26.7935 N   0  0  0  0  0  0  0  0  0  0  0  0
  -11.6054  -27.6526   28.9183 H   0  0  0  0  0  0  0  0  0  0  0  0
  -13.0926  -26.7698   28.9156 H   0  0  0  0  0  0  0  0  0  0  0  0
  -12.3599  -27.2807   30.4558 H   0  0  0  0  0  0  0  0  0  0  0  0
  -10.4184  -26.0741   31.4475 H   0  0  0  0  0  0  0  0  0  0  0  0
   -9.6341  -26.7748   30.0349 H   0  0  0  0  0  0  0  0  0  0  0  0
   -9.4179  -25.0580   30.4029 H   0  0  0  0  0  0  0  0  0  0  0  0
  -11.5316  -23.5055   30.1677 H   0  0  0  0  0  0  0  0  0  0  0  0
  -12.3598  -24.6408   31.2244 H   0  0  0  0  0  0  0  0  0  0  0  0
  -13.0570  -24.2114   29.6454 H   0  0  0  0  0  0  0  0  0  0  0  0
  -10.1550  -24.4043   28.1880 H   0  0  0  0  0  0  0  0  0  0  0  0
  -10.4264  -26.0475   27.6193 H   0  0  0  0  0  0  0  0  0  0  0  0
  -11.1349  -22.8252   26.7889 H   0  0  0  0  0  0  0  0  0  0  0  0
  -11.7169  -22.6019   23.8767 H   0  0  0  0  0  0  0  0  0  0  0  0
  -13.6046  -21.0982   21.7411 H   0  0  0  0  0  0  0  0  0  0  0  0
  -12.0573  -21.5689   22.2250 H   0  0  0  0  0  0  0  0  0  0  0  0
  -11.6415  -22.8481   20.6362 H   0  0  0  0  0  0  0  0  0  0  0  0
  -12.7884  -21.9255   19.7207 H   0  0  0  0  0  0  0  0  0  0  0  0
  -12.2877  -24.7062   19.7068 H   0  0  0  0  0  0  0  0  0  0  0  0
  -13.9355  -24.8323   20.3094 H   0  0  0  0  0  0  0  0  0  0  0  0
  -13.2673  -27.0574   18.1653 H   0  0  0  0  0  0  0  0  0  0  0  0
  -13.9916  -27.7367   16.0233 H   0  0  0  0  0  0  0  0  0  0  0  0
  -14.9995  -26.0619   14.4596 H   0  0  0  0  0  0  0  0  0  0  0  0
  -14.2424  -23.1007   17.1535 H   0  0  0  0  0  0  0  0  0  0  0  0
  -14.3078  -25.2085   25.2146 H   0  0  0  0  0  0  0  0  0  0  0  0
  1  2  1  0
  2  3  1  0
  2  4  1  0
  2  5  1  0
  5  6  1  0
  6  7  1  0
  7  8  2  0
  8  9  1  0
  9 10  1  0
 10 11  2  0
 10 12  1  0
 12 13  1  0
 13 14  1  0
 14 15  1  0
 15 16  2  0
 16 17  1  0
 17 18  2  0
 18 19  1  0
 19 20  2  0
  8 21  1  0
 21 22  2  0
 22  6  1  0
 20 15  1  0
  1 23  1  0
  1 24  1  0
  1 25  1  0
  3 26  1  0
  3 27  1  0
  3 28  1  0
  4 29  1  0
  4 30  1  0
  4 31  1  0
  5 32  1  0
  5 33  1  0
  7 34  1  0
  9 35  1  0
 12 36  1  0
 12 37  1  0
 13 38  1  0
 13 39  1  0
 14 40  1  0
 14 41  1  0
 16 42  1  0
 17 43  1  0
 18 44  1  0
 20 45  1  0
 21 46  1  0
M  END
>  <Energy>  (841) 
157.70623035535576

>  <compound_id>  (841) 
24316

>  <target_id>  (841) 
1

>  <reference_id>  (841) 
123

>  <inspiration_ids>  (841) 
[123, 48]

>  <energy_score>  (841) 
78.86435511754928

>  <distance_score>  (841) 
7.337060324235547

>  <path>  (841) 
/opt/xchem-fragalysis-2/maxwin/BulkDock/SCRATCH/511017/C24316-P123/C24316-P123.minimised.mol

>  <scratch_subdir>  (841) 
/opt/xchem-fragalysis-2/maxwin/BulkDock/SCRATCH/511017/C24316-P123

>  <fragmenstein_runtime>  (841) 
17.987319707870483

>  <fragmenstein_outcome>  (841) 
too moved

>  <fragmenstein_mode>  (841) 
expansion

>  <fragmenstein_error>  (841) 


$$$$
C24316-P48
     RDKit          3D

 46 47  0  0  0  0  0  0  0  0999 V2000
  -15.7565  -29.5626   29.7853 C   0  0  0  0  0  0  0  0  0  0  0  0
  -16.2207  -28.6492   28.6340 C   0  0  0  0  0  0  0  0  0  0  0  0
  -17.5847  -29.1532   28.1331 C   0  0  0  0  0  0  0  0  0  0  0  0
  -16.3788  -27.2204   29.1794 C   0  0  0  0  0  0  0  0  0  0  0  0
  -15.1509  -28.7138   27.5145 C   0  0  0  0  0  0  0  0  0  0  0  0
  -15.4049  -27.8880   26.3476 N   0  0  0  0  0  0  0  0  0  0  0  0
  -16.0387  -28.2739   25.1959 C   0  0  0  0  0  0  0  0  0  0  0  0
  -16.0473  -27.1904   24.3487 C   0  0  0  0  0  0  0  0  0  0  0  0
  -16.5717  -27.1197   23.0674 N   0  0  0  0  0  0  0  0  0  0  0  0
  -17.0199  -28.1667   22.1609 C   0  0  0  0  0  0  0  0  0  0  0  0
  -16.9760  -29.3627   22.2625 O   0  0  0  0  0  0  0  0  0  0  0  0
  -17.6141  -27.5713   20.8554 C   0  0  0  0  0  0  0  0  0  0  0  0
  -16.6500  -27.1419   19.7256 C   0  0  0  0  0  0  0  0  0  0  0  0
  -16.4434  -28.1343   18.5524 C   0  0  0  0  0  0  0  0  0  0  0  0
  -15.6896  -27.5610   17.3451 C   0  0  0  0  0  0  0  0  0  0  0  0
  -14.2912  -27.5530   17.2754 C   0  0  0  0  0  0  0  0  0  0  0  0
  -13.6398  -27.0477   16.1438 C   0  0  0  0  0  0  0  0  0  0  0  0
  -14.4065  -26.5528   15.1029 C   0  0  0  0  0  0  0  0  0  0  0  0
  -15.7543  -26.5287   15.1256 N   0  0  0  0  0  0  0  0  0  0  0  0
  -16.3577  -27.0325   16.2362 C   0  0  0  0  0  0  0  0  0  0  0  0
  -15.3721  -26.1921   25.1003 C   0  0  0  0  0  0  0  0  0  0  0  0
  -14.8985  -26.6399   26.2755 N   0  0  0  0  0  0  0  0  0  0  0  0
  -14.7920  -29.2327   30.1876 H   0  0  0  0  0  0  0  0  0  0  0  0
  -15.6409  -30.5984   29.4464 H   0  0  0  0  0  0  0  0  0  0  0  0
  -16.4781  -29.5617   30.6101 H   0  0  0  0  0  0  0  0  0  0  0  0
  -18.3115  -29.2014   28.9522 H   0  0  0  0  0  0  0  0  0  0  0  0
  -18.0046  -28.4923   27.3678 H   0  0  0  0  0  0  0  0  0  0  0  0
  -17.5019  -30.1579   27.7038 H   0  0  0  0  0  0  0  0  0  0  0  0
  -16.8032  -26.5469   28.4277 H   0  0  0  0  0  0  0  0  0  0  0  0
  -15.4147  -26.8093   29.4987 H   0  0  0  0  0  0  0  0  0  0  0  0
  -17.0510  -27.2011   30.0450 H   0  0  0  0  0  0  0  0  0  0  0  0
  -14.1690  -28.4141   27.9039 H   0  0  0  0  0  0  0  0  0  0  0  0
  -15.0409  -29.7440   27.1514 H   0  0  0  0  0  0  0  0  0  0  0  0
  -16.4429  -29.2709   25.0805 H   0  0  0  0  0  0  0  0  0  0  0  0
  -16.6924  -26.2199   22.6194 H   0  0  0  0  0  0  0  0  0  0  0  0
  -18.3487  -28.2888   20.4694 H   0  0  0  0  0  0  0  0  0  0  0  0
  -18.2026  -26.6932   21.1552 H   0  0  0  0  0  0  0  0  0  0  0  0
  -17.0921  -26.2434   19.2782 H   0  0  0  0  0  0  0  0  0  0  0  0
  -15.6754  -26.8688   20.1123 H   0  0  0  0  0  0  0  0  0  0  0  0
  -17.4205  -28.4943   18.2061 H   0  0  0  0  0  0  0  0  0  0  0  0
  -15.9075  -29.0201   18.9155 H   0  0  0  0  0  0  0  0  0  0  0  0
  -13.6972  -27.9454   18.0980 H   0  0  0  0  0  0  0  0  0  0  0  0
  -12.5567  -27.0456   16.0820 H   0  0  0  0  0  0  0  0  0  0  0  0
  -13.9466  -26.1542   14.2038 H   0  0  0  0  0  0  0  0  0  0  0  0
  -17.4444  -27.0000   16.2046 H   0  0  0  0  0  0  0  0  0  0  0  0
  -15.1686  -25.1656   24.8233 H   0  0  0  0  0  0  0  0  0  0  0  0
  1  2  1  0
  2  3  1  0
  2  4  1  0
  2  5  1  0
  5  6  1  0
  6  7  1  0
  7  8  2  0
  8  9  1  0
  9 10  1  0
 10 11  2  0
 10 12  1  0
 12 13  1  0
 13 14  1  0
 14 15  1  0
 15 16  2  0
 16 17  1  0
 17 18  2  0
 18 19  1  0
 19 20  2  0
  8 21  1  0
 21 22  2  0
 22  6  1  0
 20 15  1  0
  1 23  1  0
  1 24  1  0
  1 25  1  0
  3 26  1  0
  3 27  1  0
  3 28  1  0
  4 29  1  0
  4 30  1  0
  4 31  1  0
  5 32  1  0
  5 33  1  0
  7 34  1  0
  9 35  1  0
 12 36  1  0
 12 37  1  0
 13 38  1  0
 13 39  1  0
 14 40  1  0
 14 41  1  0
 16 42  1  0
 17 43  1  0
 18 44  1  0
 20 45  1  0
 21 46  1  0
M  END
>  <Energy>  (842) 
39.5947799305114

>  <compound_id>  (842) 
24316

>  <target_id>  (842) 
1

>  <reference_id>  (842) 
48

>  <inspiration_ids>  (842) 
[123, 48]

>  <energy_score>  (842) 
-39.247095307297684

>  <distance_score>  (842) 
8.750602731298155

>  <path>  (842) 
/opt/xchem-fragalysis-2/maxwin/BulkDock/SCRATCH/511017/C24316-P48/C24316-P48.minimised.mol

>  <scratch_subdir>  (842) 
/opt/xchem-fragalysis-2/maxwin/BulkDock/SCRATCH/511017/C24316-P48

>  <fragmenstein_runtime>  (842) 
5.859750270843506

>  <fragmenstein_outcome>  (842) 
too moved

>  <fragmenstein_mode>  (842) 
expansion

>  <fragmenstein_error>  (842) 


$$$$
C24317-P123
     RDKit          3D

 39 40  0  0  0  0  0  0  0  0999 V2000
  -11.4673  -26.7207   30.3021 N   0  0  0  0  0  0  0  0  0  0  0  0
  -11.8723  -25.7086   29.3166 C   0  0  0  0  0  0  0  0  0  0  0  0
  -12.5250  -26.3731   28.1017 C   0  0  0  0  0  0  0  0  0  0  0  0
  -13.1310  -25.4497   27.1556 N   0  0  0  0  0  0  0  0  0  0  0  0
  -14.1185  -25.7641   26.2471 C   0  0  0  0  0  0  0  0  0  0  0  0
  -14.0280  -24.8365   25.2272 C   0  0  0  0  0  0  0  0  0  0  0  0
  -14.4134  -25.0260   23.9095 N   0  0  0  0  0  0  0  0  0  0  0  0
  -15.0765  -26.1063   23.2817 C   0  0  0  0  0  0  0  0  0  0  0  0
  -15.5549  -27.1057   23.7428 O   0  0  0  0  0  0  0  0  0  0  0  0
  -15.1052  -26.0584   21.5365 C   0  0  0  0  0  0  0  0  0  0  0  0
  -14.1704  -25.4324   20.0222 C   0  0  0  0  0  0  0  0  0  0  0  0
  -14.2599  -26.1396   18.3187 C   0  0  0  0  0  0  0  0  0  0  0  0
  -13.9518  -25.6489   16.8941 C   0  0  0  0  0  0  0  0  0  0  0  0
  -12.9280  -26.2703   16.1458 C   0  0  0  0  0  0  0  0  0  0  0  0
  -12.8362  -26.0993   14.7608 C   0  0  0  0  0  0  0  0  0  0  0  0
  -13.7797  -25.3043   14.1370 C   0  0  0  0  0  0  0  0  0  0  0  0
  -14.7708  -24.6722   14.8030 N   0  0  0  0  0  0  0  0  0  0  0  0
  -14.8401  -24.8699   16.1511 C   0  0  0  0  0  0  0  0  0  0  0  0
  -13.0430  -23.9296   25.6974 C   0  0  0  0  0  0  0  0  0  0  0  0
  -12.5085  -24.2961   26.8662 N   0  0  0  0  0  0  0  0  0  0  0  0
  -11.3552  -26.2546   31.2087 H   0  0  0  0  0  0  0  0  0  0  0  0
  -10.5253  -27.0561   30.0858 H   0  0  0  0  0  0  0  0  0  0  0  0
  -10.9928  -25.1257   29.0192 H   0  0  0  0  0  0  0  0  0  0  0  0
  -12.5675  -25.0051   29.7849 H   0  0  0  0  0  0  0  0  0  0  0  0
  -13.3066  -27.0772   28.4047 H   0  0  0  0  0  0  0  0  0  0  0  0
  -11.7758  -26.9405   27.5355 H   0  0  0  0  0  0  0  0  0  0  0  0
  -14.6531  -26.7026   26.3096 H   0  0  0  0  0  0  0  0  0  0  0  0
  -14.2173  -24.3124   23.2146 H   0  0  0  0  0  0  0  0  0  0  0  0
  -14.6374  -26.9376   21.4675 H   0  0  0  0  0  0  0  0  0  0  0  0
  -16.1629  -26.2886   21.4156 H   0  0  0  0  0  0  0  0  0  0  0  0
  -13.1728  -25.0207   20.1139 H   0  0  0  0  0  0  0  0  0  0  0  0
  -14.3757  -24.4332   20.0164 H   0  0  0  0  0  0  0  0  0  0  0  0
  -15.2981  -26.4819   18.1593 H   0  0  0  0  0  0  0  0  0  0  0  0
  -13.6854  -27.0644   18.3359 H   0  0  0  0  0  0  0  0  0  0  0  0
  -12.2160  -26.9319   16.6381 H   0  0  0  0  0  0  0  0  0  0  0  0
  -12.0530  -26.5866   14.1906 H   0  0  0  0  0  0  0  0  0  0  0  0
  -13.7575  -25.1399   13.0643 H   0  0  0  0  0  0  0  0  0  0  0  0
  -15.7037  -24.4027   16.6162 H   0  0  0  0  0  0  0  0  0  0  0  0
  -12.6178  -23.0763   25.1862 H   0  0  0  0  0  0  0  0  0  0  0  0
  1  2  1  0
  2  3  1  0
  3  4  1  0
  4  5  1  0
  5  6  2  0
  6  7  1  0
  7  8  1  0
  8  9  2  0
  8 10  1  0
 10 11  1  0
 11 12  1  0
 12 13  1  0
 13 14  2  0
 14 15  1  0
 15 16  2  0
 16 17  1  0
 17 18  2  0
  6 19  1  0
 19 20  2  0
 20  4  1  0
 18 13  1  0
  1 21  1  0
  1 22  1  0
  2 23  1  0
  2 24  1  0
  3 25  1  0
  3 26  1  0
  5 27  1  0
  7 28  1  0
 10 29  1  0
 10 30  1  0
 11 31  1  0
 11 32  1  0
 12 33  1  0
 12 34  1  0
 14 35  1  0
 15 36  1  0
 16 37  1  0
 18 38  1  0
 19 39  1  0
M  END
>  <Energy>  (843) 
183.02187184691482

>  <compound_id>  (843) 
24317

>  <target_id>  (843) 
1

>  <reference_id>  (843) 
123

>  <inspiration_ids>  (843) 
[123, 48]

>  <energy_score>  (843) 
128.155717834443

>  <distance_score>  (843) 
7.056197850776631

>  <path>  (843) 
/opt/xchem-fragalysis-2/maxwin/BulkDock/SCRATCH/511017/C24317-P123/C24317-P123.minimised.mol

>  <scratch_subdir>  (843) 
/opt/xchem-fragalysis-2/maxwin/BulkDock/SCRATCH/511017/C24317-P123

>  <fragmenstein_runtime>  (843) 
13.45032262802124

>  <fragmenstein_outcome>  (843) 
too moved

>  <fragmenstein_mode>  (843) 
expansion

>  <fragmenstein_error>  (843) 


$$$$
C24317-P48
     RDKit          3D

 39 40  0  0  0  0  0  0  0  0999 V2000
  -11.1140  -25.7225   30.5167 N   0  0  0  0  0  0  0  0  0  0  0  0
  -11.9314  -25.4484   29.3269 C   0  0  0  0  0  0  0  0  0  0  0  0
  -11.4278  -24.2269   28.5534 C   0  0  0  0  0  0  0  0  0  0  0  0
  -12.1674  -23.9120   27.3462 N   0  0  0  0  0  0  0  0  0  0  0  0
  -12.0563  -22.7484   26.6253 C   0  0  0  0  0  0  0  0  0  0  0  0
  -12.7508  -22.9028   25.4493 C   0  0  0  0  0  0  0  0  0  0  0  0
  -12.4495  -22.7076   24.1073 N   0  0  0  0  0  0  0  0  0  0  0  0
  -13.3060  -22.4823   22.9696 C   0  0  0  0  0  0  0  0  0  0  0  0
  -14.4859  -22.3177   22.9057 O   0  0  0  0  0  0  0  0  0  0  0  0
  -12.4468  -22.6053   21.5608 C   0  0  0  0  0  0  0  0  0  0  0  0
  -12.4966  -24.0931   20.4228 C   0  0  0  0  0  0  0  0  0  0  0  0
  -13.4828  -25.2358   19.3513 C   0  0  0  0  0  0  0  0  0  0  0  0
  -13.3182  -25.8439   17.8909 C   0  0  0  0  0  0  0  0  0  0  0  0
  -12.3280  -26.7415   17.5101 C   0  0  0  0  0  0  0  0  0  0  0  0
  -12.1815  -27.1350   16.1737 C   0  0  0  0  0  0  0  0  0  0  0  0
  -13.0693  -26.6455   15.2330 C   0  0  0  0  0  0  0  0  0  0  0  0
  -14.0863  -25.8224   15.5450 N   0  0  0  0  0  0  0  0  0  0  0  0
  -14.1939  -25.4611   16.8523 C   0  0  0  0  0  0  0  0  0  0  0  0
  -13.4768  -24.1080   25.7235 C   0  0  0  0  0  0  0  0  0  0  0  0
  -12.9972  -24.8057   26.7687 N   0  0  0  0  0  0  0  0  0  0  0  0
  -11.1721  -24.9253   31.1535 H   0  0  0  0  0  0  0  0  0  0  0  0
  -11.5246  -26.5054   31.0265 H   0  0  0  0  0  0  0  0  0  0  0  0
  -12.9720  -25.3037   29.6366 H   0  0  0  0  0  0  0  0  0  0  0  0
  -11.9041  -26.3376   28.6870 H   0  0  0  0  0  0  0  0  0  0  0  0
  -10.3934  -24.3834   28.2304 H   0  0  0  0  0  0  0  0  0  0  0  0
  -11.4673  -23.3340   29.1874 H   0  0  0  0  0  0  0  0  0  0  0  0
  -11.4548  -21.9517   27.0237 H   0  0  0  0  0  0  0  0  0  0  0  0
  -11.4861  -22.7185   23.7987 H   0  0  0  0  0  0  0  0  0  0  0  0
  -11.4060  -22.5255   21.8646 H   0  0  0  0  0  0  0  0  0  0  0  0
  -12.4040  -21.7434   20.9571 H   0  0  0  0  0  0  0  0  0  0  0  0
  -11.5253  -24.5430   20.5335 H   0  0  0  0  0  0  0  0  0  0  0  0
  -12.6240  -23.3454   19.6869 H   0  0  0  0  0  0  0  0  0  0  0  0
  -14.2553  -24.5919   19.0072 H   0  0  0  0  0  0  0  0  0  0  0  0
  -13.9064  -26.0482   19.9359 H   0  0  0  0  0  0  0  0  0  0  0  0
  -11.6385  -27.1108   18.2462 H   0  0  0  0  0  0  0  0  0  0  0  0
  -11.3799  -27.8042   15.8803 H   0  0  0  0  0  0  0  0  0  0  0  0
  -12.9884  -26.9172   14.1852 H   0  0  0  0  0  0  0  0  0  0  0  0
  -15.0291  -24.7885   17.0419 H   0  0  0  0  0  0  0  0  0  0  0  0
  -14.1931  -24.5927   25.0697 H   0  0  0  0  0  0  0  0  0  0  0  0
  1  2  1  0
  2  3  1  0
  3  4  1  0
  4  5  1  0
  5  6  2  0
  6  7  1  0
  7  8  1  0
  8  9  2  0
  8 10  1  0
 10 11  1  0
 11 12  1  0
 12 13  1  0
 13 14  2  0
 14 15  1  0
 15 16  2  0
 16 17  1  0
 17 18  2  0
  6 19  1  0
 19 20  2  0
 20  4  1  0
 18 13  1  0
  1 21  1  0
  1 22  1  0
  2 23  1  0
  2 24  1  0
  3 25  1  0
  3 26  1  0
  5 27  1  0
  7 28  1  0
 10 29  1  0
 10 30  1  0
 11 31  1  0
 11 32  1  0
 12 33  1  0
 12 34  1  0
 14 35  1  0
 15 36  1  0
 16 37  1  0
 18 38  1  0
 19 39  1  0
M  END
>  <Energy>  (844) 
203.19513938203673

>  <compound_id>  (844) 
24317

>  <target_id>  (844) 
1

>  <reference_id>  (844) 
48

>  <inspiration_ids>  (844) 
[123, 48]

>  <energy_score>  (844) 
148.32898536956384

>  <distance_score>  (844) 
7.208040401919588

>  <path>  (844) 
/opt/xchem-fragalysis-2/maxwin/BulkDock/SCRATCH/511017/C24317-P48/C24317-P48.minimised.mol

>  <scratch_subdir>  (844) 
/opt/xchem-fragalysis-2/maxwin/BulkDock/SCRATCH/511017/C24317-P48

>  <fragmenstein_runtime>  (844) 
4.167465925216675

>  <fragmenstein_outcome>  (844) 
too moved

>  <fragmenstein_mode>  (844) 
expansion

>  <fragmenstein_error>  (844) 


$$$$
C24318-P123
     RDKit          3D

 38 40  0  0  0  0  0  0  0  0999 V2000
  -15.7465  -23.3664   21.0296 O   0  0  0  0  0  0  0  0  0  0  0  0
  -15.4867  -24.5157   21.0737 C   0  0  0  0  0  0  0  0  0  0  0  0
  -15.4910  -25.3759   19.7009 C   0  0  0  0  0  0  0  0  0  0  0  0
  -14.4548  -25.0757   18.5305 C   0  0  0  0  0  0  0  0  0  0  0  0
  -15.0214  -25.3450   16.9088 C   0  0  0  0  0  0  0  0  0  0  0  0
  -14.2727  -25.3678   15.4483 C   0  0  0  0  0  0  0  0  0  0  0  0
  -13.1464  -26.1412   15.1230 C   0  0  0  0  0  0  0  0  0  0  0  0
  -12.6054  -26.1460   13.8102 C   0  0  0  0  0  0  0  0  0  0  0  0
  -13.2089  -25.3950   12.8123 C   0  0  0  0  0  0  0  0  0  0  0  0
  -14.3159  -24.6667   13.0330 N   0  0  0  0  0  0  0  0  0  0  0  0
  -14.8076  -24.6836   14.3205 C   0  0  0  0  0  0  0  0  0  0  0  0
  -15.1542  -25.4498   22.3212 N   0  0  0  0  0  0  0  0  0  0  0  0
  -15.1746  -25.1687   23.7119 C   0  0  0  0  0  0  0  0  0  0  0  0
  -15.9649  -24.1936   24.2611 C   0  0  0  0  0  0  0  0  0  0  0  0
  -16.1081  -24.5551   25.5533 N   0  0  0  0  0  0  0  0  0  0  0  0
  -15.1180  -25.2781   26.0577 N   0  0  0  0  0  0  0  0  0  0  0  0
  -14.5562  -25.7144   24.9362 C   0  0  0  0  0  0  0  0  0  0  0  0
  -13.4480  -26.7367   25.1373 C   0  0  0  0  0  0  0  0  0  0  0  0
  -12.0816  -26.2939   25.6166 C   0  0  0  0  0  0  0  0  0  0  0  0
  -12.9749  -27.0326   26.5577 C   0  0  0  0  0  0  0  0  0  0  0  0
  -15.4639  -26.4384   19.9483 H   0  0  0  0  0  0  0  0  0  0  0  0
  -16.4955  -25.2053   19.2897 H   0  0  0  0  0  0  0  0  0  0  0  0
  -13.6327  -25.7658   18.5780 H   0  0  0  0  0  0  0  0  0  0  0  0
  -14.0783  -24.0548   18.5989 H   0  0  0  0  0  0  0  0  0  0  0  0
  -15.8379  -24.6198   16.7961 H   0  0  0  0  0  0  0  0  0  0  0  0
  -15.5006  -26.3331   16.9579 H   0  0  0  0  0  0  0  0  0  0  0  0
  -12.6611  -26.7359   15.8943 H   0  0  0  0  0  0  0  0  0  0  0  0
  -11.7157  -26.7290   13.5925 H   0  0  0  0  0  0  0  0  0  0  0  0
  -12.8129  -25.3692   11.8029 H   0  0  0  0  0  0  0  0  0  0  0  0
  -15.7060  -24.0796   14.4416 H   0  0  0  0  0  0  0  0  0  0  0  0
  -14.8980  -26.3649   21.9981 H   0  0  0  0  0  0  0  0  0  0  0  0
  -16.6250  -23.4696   23.8031 H   0  0  0  0  0  0  0  0  0  0  0  0
  -16.8803  -24.3010   26.1535 H   0  0  0  0  0  0  0  0  0  0  0  0
  -13.6388  -27.5950   24.5293 H   0  0  0  0  0  0  0  0  0  0  0  0
  -11.1841  -26.8110   25.3161 H   0  0  0  0  0  0  0  0  0  0  0  0
  -11.9255  -25.2373   25.8210 H   0  0  0  0  0  0  0  0  0  0  0  0
  -13.3811  -26.4732   27.3947 H   0  0  0  0  0  0  0  0  0  0  0  0
  -12.7296  -28.0523   26.8238 H   0  0  0  0  0  0  0  0  0  0  0  0
  1  2  2  0
  2  3  1  0
  3  4  1  0
  4  5  1  0
  5  6  1  0
  6  7  2  0
  7  8  1  0
  8  9  2  0
  9 10  1  0
 10 11  2  0
  2 12  1  0
 12 13  1  0
 13 14  2  0
 14 15  1  0
 15 16  1  0
 16 17  2  0
 17 18  1  0
 18 19  1  0
 19 20  1  0
 11  6  1  0
 17 13  1  0
 20 18  1  0
  3 21  1  0
  3 22  1  0
  4 23  1  0
  4 24  1  0
  5 25  1  0
  5 26  1  0
  7 27  1  0
  8 28  1  0
  9 29  1  0
 11 30  1  0
 12 31  1  0
 14 32  1  0
 15 33  1  0
 18 34  1  0
 19 35  1  0
 19 36  1  0
 20 37  1  0
 20 38  1  0
M  END
>  <Energy>  (845) 
105.38764316288197

>  <compound_id>  (845) 
24318

>  <target_id>  (845) 
1

>  <reference_id>  (845) 
123

>  <inspiration_ids>  (845) 
[123, 48]

>  <energy_score>  (845) 
41.17107332883171

>  <distance_score>  (845) 
7.787984845388295

>  <path>  (845) 
/opt/xchem-fragalysis-2/maxwin/BulkDock/SCRATCH/511017/C24318-P123/C24318-P123.minimised.mol

>  <scratch_subdir>  (845) 
/opt/xchem-fragalysis-2/maxwin/BulkDock/SCRATCH/511017/C24318-P123

>  <fragmenstein_runtime>  (845) 
5.722182035446167

>  <fragmenstein_outcome>  (845) 
too moved

>  <fragmenstein_mode>  (845) 
expansion

>  <fragmenstein_error>  (845) 


$$$$
C24318-P48
     RDKit          3D

 38 40  0  0  0  0  0  0  0  0999 V2000
   -6.1263  -18.4953   19.7432 O   0  0  0  0  0  0  0  0  0  0  0  0
   -7.2062  -18.9617   19.4940 C   0  0  0  0  0  0  0  0  0  0  0  0
   -7.3418  -19.6378   18.0649 C   0  0  0  0  0  0  0  0  0  0  0  0
   -8.6989  -20.6094   17.6267 C   0  0  0  0  0  0  0  0  0  0  0  0
   -9.4836  -21.5183   16.0389 C   0  0  0  0  0  0  0  0  0  0  0  0
   -9.5978  -22.3813   14.6209 C   0  0  0  0  0  0  0  0  0  0  0  0
   -9.7037  -23.7779   14.5745 C   0  0  0  0  0  0  0  0  0  0  0  0
  -10.1413  -24.5321   13.4703 C   0  0  0  0  0  0  0  0  0  0  0  0
  -10.5248  -23.8592   12.3481 C   0  0  0  0  0  0  0  0  0  0  0  0
  -10.5197  -22.5265   12.3008 N   0  0  0  0  0  0  0  0  0  0  0  0
  -10.1458  -21.8510   13.4393 C   0  0  0  0  0  0  0  0  0  0  0  0
   -8.4315  -18.9535   20.2514 N   0  0  0  0  0  0  0  0  0  0  0  0
   -8.7062  -18.4916   21.5165 C   0  0  0  0  0  0  0  0  0  0  0  0
   -7.8233  -17.8378   22.3420 C   0  0  0  0  0  0  0  0  0  0  0  0
   -8.5336  -17.4221   23.4259 N   0  0  0  0  0  0  0  0  0  0  0  0
   -9.8034  -17.8602   23.4314 N   0  0  0  0  0  0  0  0  0  0  0  0
   -9.8986  -18.5286   22.2770 C   0  0  0  0  0  0  0  0  0  0  0  0
  -11.2145  -19.2193   21.8511 C   0  0  0  0  0  0  0  0  0  0  0  0
  -11.8263  -20.2510   22.7655 C   0  0  0  0  0  0  0  0  0  0  0  0
  -12.4797  -18.9019   22.6123 C   0  0  0  0  0  0  0  0  0  0  0  0
   -7.2577  -18.6893   17.5167 H   0  0  0  0  0  0  0  0  0  0  0  0
   -6.4324  -20.2255   17.8776 H   0  0  0  0  0  0  0  0  0  0  0  0
   -9.3696  -19.7690   17.7811 H   0  0  0  0  0  0  0  0  0  0  0  0
   -8.9154  -21.1557   18.5080 H   0  0  0  0  0  0  0  0  0  0  0  0
   -9.9973  -20.6730   15.6278 H   0  0  0  0  0  0  0  0  0  0  0  0
   -9.8684  -22.3584   16.5191 H   0  0  0  0  0  0  0  0  0  0  0  0
   -9.4163  -24.3620   15.4182 H   0  0  0  0  0  0  0  0  0  0  0  0
  -10.1655  -25.6143   13.5179 H   0  0  0  0  0  0  0  0  0  0  0  0
  -10.8712  -24.3754   11.4618 H   0  0  0  0  0  0  0  0  0  0  0  0
  -10.4279  -20.8026   13.3740 H   0  0  0  0  0  0  0  0  0  0  0  0
   -9.1622  -19.3703   19.6980 H   0  0  0  0  0  0  0  0  0  0  0  0
   -6.7833  -17.5696   22.2145 H   0  0  0  0  0  0  0  0  0  0  0  0
   -8.2130  -16.8435   24.1958 H   0  0  0  0  0  0  0  0  0  0  0  0
  -11.3004  -19.3804   20.7854 H   0  0  0  0  0  0  0  0  0  0  0  0
  -12.2672  -21.1363   22.3238 H   0  0  0  0  0  0  0  0  0  0  0  0
  -11.3310  -20.4946   23.6938 H   0  0  0  0  0  0  0  0  0  0  0  0
  -12.4147  -18.1779   23.4155 H   0  0  0  0  0  0  0  0  0  0  0  0
  -13.4144  -18.8112   22.0760 H   0  0  0  0  0  0  0  0  0  0  0  0
  1  2  2  0
  2  3  1  0
  3  4  1  0
  4  5  1  0
  5  6  1  0
  6  7  2  0
  7  8  1  0
  8  9  2  0
  9 10  1  0
 10 11  2  0
  2 12  1  0
 12 13  1  0
 13 14  2  0
 14 15  1  0
 15 16  1  0
 16 17  2  0
 17 18  1  0
 18 19  1  0
 19 20  1  0
 11  6  1  0
 17 13  1  0
 20 18  1  0
  3 21  1  0
  3 22  1  0
  4 23  1  0
  4 24  1  0
  5 25  1  0
  5 26  1  0
  7 27  1  0
  8 28  1  0
  9 29  1  0
 11 30  1  0
 12 31  1  0
 14 32  1  0
 15 33  1  0
 18 34  1  0
 19 35  1  0
 19 36  1  0
 20 37  1  0
 20 38  1  0
M  END
>  <Energy>  (846) 
197.43312385681139

>  <compound_id>  (846) 
24318

>  <target_id>  (846) 
1

>  <reference_id>  (846) 
48

>  <inspiration_ids>  (846) 
[123, 48]

>  <energy_score>  (846) 
128.62051570276878

>  <distance_score>  (846) 
9.973576377075958

>  <path>  (846) 
/opt/xchem-fragalysis-2/maxwin/BulkDock/SCRATCH/511017/C24318-P48/C24318-P48.minimised.mol

>  <scratch_subdir>  (846) 
/opt/xchem-fragalysis-2/maxwin/BulkDock/SCRATCH/511017/C24318-P48

>  <fragmenstein_runtime>  (846) 
6.589020490646362

>  <fragmenstein_outcome>  (846) 
too moved

>  <fragmenstein_mode>  (846) 
expansion

>  <fragmenstein_error>  (846) 


$$$$
C24319-P123
     RDKit          3D

 46 47  0  0  0  0  0  0  0  0999 V2000
  -12.2059  -26.7522   16.8138 C   0  0  0  0  0  0  0  0  0  0  0  0
  -13.6637  -26.9720   17.2035 C   0  0  0  0  0  0  0  0  0  0  0  0
  -14.3452  -25.9934   18.2479 C   0  0  0  0  0  0  0  0  0  0  0  0
  -14.1644  -25.4026   20.0306 C   0  0  0  0  0  0  0  0  0  0  0  0
  -13.2814  -24.5635   20.1040 O   0  0  0  0  0  0  0  0  0  0  0  0
  -15.0956  -26.1419   21.2649 N   0  0  0  0  0  0  0  0  0  0  0  0
  -15.1416  -25.8884   22.8915 C   0  0  0  0  0  0  0  0  0  0  0  0
  -14.3748  -25.8167   24.0512 C   0  0  0  0  0  0  0  0  0  0  0  0
  -15.1584  -25.3710   25.0797 N   0  0  0  0  0  0  0  0  0  0  0  0
  -16.4438  -25.5770   24.8450 N   0  0  0  0  0  0  0  0  0  0  0  0
  -16.4685  -26.0626   23.5890 C   0  0  0  0  0  0  0  0  0  0  0  0
  -17.7041  -26.6199   23.0190 C   0  0  0  0  0  0  0  0  0  0  0  0
  -17.9830  -26.4962   21.8283 O   0  0  0  0  0  0  0  0  0  0  0  0
  -18.5215  -27.3841   23.8036 O   0  0  0  0  0  0  0  0  0  0  0  0
  -18.3327  -28.0403   25.0992 C   0  0  0  0  0  0  0  0  0  0  0  0
  -16.9048  -28.5282   25.4045 C   0  0  0  0  0  0  0  0  0  0  0  0
  -18.9027  -27.1529   26.2071 C   0  0  0  0  0  0  0  0  0  0  0  0
  -19.2296  -29.2901   24.9875 C   0  0  0  0  0  0  0  0  0  0  0  0
  -14.3271  -26.9352   15.7843 C   0  0  0  0  0  0  0  0  0  0  0  0
  -14.3442  -28.0882   14.9838 C   0  0  0  0  0  0  0  0  0  0  0  0
  -14.7135  -28.0104   13.6391 C   0  0  0  0  0  0  0  0  0  0  0  0
  -15.0672  -26.7777   13.1196 C   0  0  0  0  0  0  0  0  0  0  0  0
  -15.0825  -25.6443   13.8465 N   0  0  0  0  0  0  0  0  0  0  0  0
  -14.7072  -25.7473   15.1471 C   0  0  0  0  0  0  0  0  0  0  0  0
  -12.0535  -25.8332   16.2404 H   0  0  0  0  0  0  0  0  0  0  0  0
  -11.5547  -26.7338   17.6621 H   0  0  0  0  0  0  0  0  0  0  0  0
  -11.8378  -27.5712   16.1819 H   0  0  0  0  0  0  0  0  0  0  0  0
  -13.7708  -27.9920   17.5817 H   0  0  0  0  0  0  0  0  0  0  0  0
  -14.2021  -25.0210   17.7434 H   0  0  0  0  0  0  0  0  0  0  0  0
  -15.3959  -26.3022   18.1129 H   0  0  0  0  0  0  0  0  0  0  0  0
  -15.7925  -26.7180   20.8645 H   0  0  0  0  0  0  0  0  0  0  0  0
  -13.3788  -26.0808   24.3540 H   0  0  0  0  0  0  0  0  0  0  0  0
  -14.8740  -25.0810   26.0102 H   0  0  0  0  0  0  0  0  0  0  0  0
  -16.4008  -28.8648   24.4951 H   0  0  0  0  0  0  0  0  0  0  0  0
  -16.9214  -29.3661   26.1117 H   0  0  0  0  0  0  0  0  0  0  0  0
  -16.2883  -27.7682   25.8842 H   0  0  0  0  0  0  0  0  0  0  0  0
  -18.8633  -27.6525   27.1808 H   0  0  0  0  0  0  0  0  0  0  0  0
  -19.9456  -26.8889   25.9961 H   0  0  0  0  0  0  0  0  0  0  0  0
  -18.3675  -26.2068   26.2913 H   0  0  0  0  0  0  0  0  0  0  0  0
  -20.2590  -29.0139   24.7301 H   0  0  0  0  0  0  0  0  0  0  0  0
  -18.8765  -29.9479   24.1843 H   0  0  0  0  0  0  0  0  0  0  0  0
  -19.2509  -29.8633   25.9206 H   0  0  0  0  0  0  0  0  0  0  0  0
  -14.0203  -29.0442   15.3881 H   0  0  0  0  0  0  0  0  0  0  0  0
  -14.7099  -28.8925   13.0085 H   0  0  0  0  0  0  0  0  0  0  0  0
  -15.3561  -26.6679   12.0787 H   0  0  0  0  0  0  0  0  0  0  0  0
  -14.6860  -24.7908   15.6613 H   0  0  0  0  0  0  0  0  0  0  0  0
  1  2  1  0
  2  3  1  0
  3  4  1  0
  4  5  2  0
  4  6  1  0
  6  7  1  0
  7  8  2  0
  8  9  1  0
  9 10  1  0
 10 11  2  0
 11 12  1  0
 12 13  2  0
 12 14  1  0
 14 15  1  0
 15 16  1  0
 15 17  1  0
 15 18  1  0
  2 19  1  0
 19 20  2  0
 20 21  1  0
 21 22  2  0
 22 23  1  0
 23 24  2  0
 11  7  1  0
 24 19  1  0
  1 25  1  0
  1 26  1  0
  1 27  1  0
  2 28  1  0
  3 29  1  0
  3 30  1  0
  6 31  1  0
  8 32  1  0
  9 33  1  0
 16 34  1  0
 16 35  1  0
 16 36  1  0
 17 37  1  0
 17 38  1  0
 17 39  1  0
 18 40  1  0
 18 41  1  0
 18 42  1  0
 20 43  1  0
 21 44  1  0
 22 45  1  0
 24 46  1  0
M  END
>  <Energy>  (847) 
244.82006087291808

>  <compound_id>  (847) 
24319

>  <target_id>  (847) 
1

>  <reference_id>  (847) 
123

>  <inspiration_ids>  (847) 
[123, 48]

>  <energy_score>  (847) 
104.96991887390936

>  <distance_score>  (847) 
8.304600691782158

>  <path>  (847) 
/opt/xchem-fragalysis-2/maxwin/BulkDock/SCRATCH/511017/C24319-P123/C24319-P123.minimised.mol

>  <scratch_subdir>  (847) 
/opt/xchem-fragalysis-2/maxwin/BulkDock/SCRATCH/511017/C24319-P123

>  <fragmenstein_runtime>  (847) 
17.44324254989624

>  <fragmenstein_outcome>  (847) 
too moved

>  <fragmenstein_mode>  (847) 
expansion

>  <fragmenstein_error>  (847) 


$$$$
C24319-P48
     RDKit          3D

 46 47  0  0  0  0  0  0  0  0999 V2000
  -11.6317  -26.2971   18.1300 C   0  0  0  0  0  0  0  0  0  0  0  0
  -11.6618  -25.3362   19.8848 C   0  0  0  0  0  0  0  0  0  0  0  0
  -10.7191  -26.0991   21.8317 C   0  0  0  0  0  0  0  0  0  0  0  0
  -11.0225  -26.3556   24.1889 C   0  0  0  0  0  0  0  0  0  0  0  0
  -10.5265  -25.5050   24.8740 O   0  0  0  0  0  0  0  0  0  0  0  0
  -11.9902  -27.5553   24.9644 N   0  0  0  0  0  0  0  0  0  0  0  0
  -12.4151  -27.7018   26.2865 C   0  0  0  0  0  0  0  0  0  0  0  0
  -12.7690  -28.7538   27.0998 C   0  0  0  0  0  0  0  0  0  0  0  0
  -13.1352  -28.2220   28.3095 N   0  0  0  0  0  0  0  0  0  0  0  0
  -13.2426  -26.8929   28.2774 N   0  0  0  0  0  0  0  0  0  0  0  0
  -12.7666  -26.5610   27.0644 C   0  0  0  0  0  0  0  0  0  0  0  0
  -13.0098  -25.2488   26.4836 C   0  0  0  0  0  0  0  0  0  0  0  0
  -13.5970  -25.1631   25.4064 O   0  0  0  0  0  0  0  0  0  0  0  0
  -12.6814  -24.1442   27.1769 O   0  0  0  0  0  0  0  0  0  0  0  0
  -11.6362  -23.9536   28.1596 C   0  0  0  0  0  0  0  0  0  0  0  0
  -11.5854  -22.4391   28.3419 C   0  0  0  0  0  0  0  0  0  0  0  0
  -10.3639  -24.4017   27.5022 C   0  0  0  0  0  0  0  0  0  0  0  0
  -11.8339  -24.6488   29.5106 C   0  0  0  0  0  0  0  0  0  0  0  0
  -13.4405  -25.6584   19.2747 C   0  0  0  0  0  0  0  0  0  0  0  0
  -14.0408  -24.8995   18.2107 C   0  0  0  0  0  0  0  0  0  0  0  0
  -15.0662  -25.3422   17.3480 C   0  0  0  0  0  0  0  0  0  0  0  0
  -15.5375  -26.6124   17.5174 C   0  0  0  0  0  0  0  0  0  0  0  0
  -15.0126  -27.4375   18.4306 N   0  0  0  0  0  0  0  0  0  0  0  0
  -13.9826  -26.9575   19.2037 C   0  0  0  0  0  0  0  0  0  0  0  0
  -12.1324  -25.8014   17.2824 H   0  0  0  0  0  0  0  0  0  0  0  0
  -10.6649  -26.5121   17.6456 H   0  0  0  0  0  0  0  0  0  0  0  0
  -12.0539  -27.3256   18.1485 H   0  0  0  0  0  0  0  0  0  0  0  0
  -11.2042  -26.4869   19.4139 H   0  0  0  0  0  0  0  0  0  0  0  0
  -11.2157  -24.9986   21.4055 H   0  0  0  0  0  0  0  0  0  0  0  0
   -9.7839  -25.8804   21.3815 H   0  0  0  0  0  0  0  0  0  0  0  0
  -12.2527  -28.2276   24.2761 H   0  0  0  0  0  0  0  0  0  0  0  0
  -12.7829  -29.8276   26.9902 H   0  0  0  0  0  0  0  0  0  0  0  0
  -13.4073  -28.7114   29.1586 H   0  0  0  0  0  0  0  0  0  0  0  0
  -10.5763  -22.1069   28.5295 H   0  0  0  0  0  0  0  0  0  0  0  0
  -12.1672  -22.0821   29.1957 H   0  0  0  0  0  0  0  0  0  0  0  0
  -11.9477  -21.9193   27.4502 H   0  0  0  0  0  0  0  0  0  0  0  0
   -9.4794  -24.0565   28.0221 H   0  0  0  0  0  0  0  0  0  0  0  0
  -10.3544  -25.4871   27.4300 H   0  0  0  0  0  0  0  0  0  0  0  0
  -10.3166  -24.0180   26.4904 H   0  0  0  0  0  0  0  0  0  0  0  0
  -11.3331  -24.1108   30.3192 H   0  0  0  0  0  0  0  0  0  0  0  0
  -12.8857  -24.7482   29.7858 H   0  0  0  0  0  0  0  0  0  0  0  0
  -11.4002  -25.6542   29.5157 H   0  0  0  0  0  0  0  0  0  0  0  0
  -13.6813  -23.9267   17.9371 H   0  0  0  0  0  0  0  0  0  0  0  0
  -15.4649  -24.6941   16.5756 H   0  0  0  0  0  0  0  0  0  0  0  0
  -16.3393  -27.0158   16.9091 H   0  0  0  0  0  0  0  0  0  0  0  0
  -13.4294  -27.7911   19.6045 H   0  0  0  0  0  0  0  0  0  0  0  0
  1  2  1  0
  2  3  1  0
  3  4  1  0
  4  5  2  0
  4  6  1  0
  6  7  1  0
  7  8  2  0
  8  9  1  0
  9 10  1  0
 10 11  2  0
 11 12  1  0
 12 13  2  0
 12 14  1  0
 14 15  1  0
 15 16  1  0
 15 17  1  0
 15 18  1  0
  2 19  1  0
 19 20  2  0
 20 21  1  0
 21 22  2  0
 22 23  1  0
 23 24  2  0
 11  7  1  0
 24 19  1  0
  1 25  1  0
  1 26  1  0
  1 27  1  0
  2 28  1  0
  3 29  1  0
  3 30  1  0
  6 31  1  0
  8 32  1  0
  9 33  1  0
 16 34  1  0
 16 35  1  0
 16 36  1  0
 17 37  1  0
 17 38  1  0
 17 39  1  0
 18 40  1  0
 18 41  1  0
 18 42  1  0
 20 43  1  0
 21 44  1  0
 22 45  1  0
 24 46  1  0
M  END
>  <Energy>  (848) 
964.38087352393188

>  <compound_id>  (848) 
24319

>  <target_id>  (848) 
1

>  <reference_id>  (848) 
48

>  <inspiration_ids>  (848) 
[123, 48]

>  <energy_score>  (848) 
824.5307315249265

>  <distance_score>  (848) 
7.492235827424186

>  <path>  (848) 
/opt/xchem-fragalysis-2/maxwin/BulkDock/SCRATCH/511017/C24319-P48/C24319-P48.minimised.mol

>  <scratch_subdir>  (848) 
/opt/xchem-fragalysis-2/maxwin/BulkDock/SCRATCH/511017/C24319-P48

>  <fragmenstein_runtime>  (848) 
9.190345048904419

>  <fragmenstein_outcome>  (848) 
too moved

>  <fragmenstein_mode>  (848) 
expansion

>  <fragmenstein_error>  (848) 


$$$$
C24320-P123
     RDKit          3D

 35 36  0  0  0  0  0  0  0  0999 V2000
  -12.0817  -26.6517   25.1666 N   0  0  0  0  0  0  0  0  0  0  0  0
  -13.2534  -26.0707   25.7751 C   0  0  0  0  0  0  0  0  0  0  0  0
  -14.3752  -26.4710   25.8385 O   0  0  0  0  0  0  0  0  0  0  0  0
  -12.8658  -24.8414   26.4136 C   0  0  0  0  0  0  0  0  0  0  0  0
  -12.7246  -24.7782   27.7800 N   0  0  0  0  0  0  0  0  0  0  0  0
  -11.9952  -23.7328   28.1772 N   0  0  0  0  0  0  0  0  0  0  0  0
  -11.8731  -23.0070   27.0660 C   0  0  0  0  0  0  0  0  0  0  0  0
  -12.4132  -23.6307   25.9059 C   0  0  0  0  0  0  0  0  0  0  0  0
  -12.4748  -23.1287   24.5959 N   0  0  0  0  0  0  0  0  0  0  0  0
  -13.5554  -23.1353   23.6241 C   0  0  0  0  0  0  0  0  0  0  0  0
  -14.6372  -23.6400   23.6690 O   0  0  0  0  0  0  0  0  0  0  0  0
  -13.1108  -22.3844   22.2154 C   0  0  0  0  0  0  0  0  0  0  0  0
  -12.7352  -22.9508   20.5875 C   0  0  0  0  0  0  0  0  0  0  0  0
  -13.3944  -24.3634   19.4520 C   0  0  0  0  0  0  0  0  0  0  0  0
  -13.8015  -25.1285   17.8381 C   0  0  0  0  0  0  0  0  0  0  0  0
  -13.1774  -26.2789   17.2851 C   0  0  0  0  0  0  0  0  0  0  0  0
  -13.4010  -26.7145   15.9638 C   0  0  0  0  0  0  0  0  0  0  0  0
  -14.2673  -26.0075   15.1650 C   0  0  0  0  0  0  0  0  0  0  0  0
  -14.9209  -24.9272   15.6070 N   0  0  0  0  0  0  0  0  0  0  0  0
  -14.6794  -24.5418   16.8995 C   0  0  0  0  0  0  0  0  0  0  0  0
  -11.3039  -25.9651   25.2066 H   0  0  0  0  0  0  0  0  0  0  0  0
  -11.2527  -26.0759   25.4107 H   0  0  0  0  0  0  0  0  0  0  0  0
  -12.9965  -25.4683   28.4763 H   0  0  0  0  0  0  0  0  0  0  0  0
  -11.4439  -22.0211   27.1659 H   0  0  0  0  0  0  0  0  0  0  0  0
  -11.7374  -22.5333   24.2620 H   0  0  0  0  0  0  0  0  0  0  0  0
  -12.1978  -21.8215   22.4620 H   0  0  0  0  0  0  0  0  0  0  0  0
  -13.8676  -21.6071   22.1824 H   0  0  0  0  0  0  0  0  0  0  0  0
  -12.5873  -22.1135   19.9271 H   0  0  0  0  0  0  0  0  0  0  0  0
  -11.6828  -23.1493   20.7299 H   0  0  0  0  0  0  0  0  0  0  0  0
  -13.3573  -23.5435   18.7142 H   0  0  0  0  0  0  0  0  0  0  0  0
  -12.4283  -24.7726   19.5527 H   0  0  0  0  0  0  0  0  0  0  0  0
  -12.4208  -26.8564   17.7891 H   0  0  0  0  0  0  0  0  0  0  0  0
  -12.8770  -27.5828   15.5776 H   0  0  0  0  0  0  0  0  0  0  0  0
  -14.4640  -26.2982   14.1388 H   0  0  0  0  0  0  0  0  0  0  0  0
  -15.3010  -23.7082   17.1585 H   0  0  0  0  0  0  0  0  0  0  0  0
  1  2  1  0
  2  3  2  0
  2  4  1  0
  4  5  1  0
  5  6  1  0
  6  7  2  0
  7  8  1  0
  8  9  1  0
  9 10  1  0
 10 11  2  0
 10 12  1  0
 12 13  1  0
 13 14  1  0
 14 15  1  0
 15 16  2  0
 16 17  1  0
 17 18  2  0
 18 19  1  0
 19 20  2  0
  8  4  2  0
 20 15  1  0
  1 21  1  0
  1 22  1  0
  5 23  1  0
  7 24  1  0
  9 25  1  0
 12 26  1  0
 12 27  1  0
 13 28  1  0
 13 29  1  0
 14 30  1  0
 14 31  1  0
 16 32  1  0
 17 33  1  0
 18 34  1  0
 20 35  1  0
M  END
>  <Energy>  (849) 
358.08768401291417

>  <compound_id>  (849) 
24320

>  <target_id>  (849) 
1

>  <reference_id>  (849) 
123

>  <inspiration_ids>  (849) 
[123, 48]

>  <energy_score>  (849) 
332.9052104131442

>  <distance_score>  (849) 
6.911451726354327

>  <path>  (849) 
/opt/xchem-fragalysis-2/maxwin/BulkDock/SCRATCH/511017/C24320-P123/C24320-P123.minimised.mol

>  <scratch_subdir>  (849) 
/opt/xchem-fragalysis-2/maxwin/BulkDock/SCRATCH/511017/C24320-P123

>  <fragmenstein_runtime>  (849) 
9.58126187324524

>  <fragmenstein_outcome>  (849) 
too moved

>  <fragmenstein_mode>  (849) 
expansion

>  <fragmenstein_error>  (849) 


$$$$
C24320-P48
     RDKit          3D

 35 36  0  0  0  0  0  0  0  0999 V2000
  -11.7454  -21.5645   29.1028 N   0  0  0  0  0  0  0  0  0  0  0  0
  -11.8549  -22.9785   29.1446 C   0  0  0  0  0  0  0  0  0  0  0  0
  -11.9104  -23.7297   30.0771 O   0  0  0  0  0  0  0  0  0  0  0  0
  -11.9104  -23.6446   27.8161 C   0  0  0  0  0  0  0  0  0  0  0  0
  -11.7696  -25.0140   27.9647 N   0  0  0  0  0  0  0  0  0  0  0  0
  -11.0489  -25.5592   26.9960 N   0  0  0  0  0  0  0  0  0  0  0  0
  -10.7709  -24.4896   26.2484 C   0  0  0  0  0  0  0  0  0  0  0  0
  -11.6890  -23.3968   26.4540 C   0  0  0  0  0  0  0  0  0  0  0  0
  -12.4001  -22.9734   25.2646 N   0  0  0  0  0  0  0  0  0  0  0  0
  -11.8774  -22.5225   23.8974 C   0  0  0  0  0  0  0  0  0  0  0  0
  -10.7516  -22.3302   23.5137 O   0  0  0  0  0  0  0  0  0  0  0  0
  -12.8856  -22.3853   22.7580 C   0  0  0  0  0  0  0  0  0  0  0  0
  -12.4556  -23.0320   21.0315 C   0  0  0  0  0  0  0  0  0  0  0  0
  -12.9049  -24.6005   19.9871 C   0  0  0  0  0  0  0  0  0  0  0  0
  -13.5623  -25.2873   18.5317 C   0  0  0  0  0  0  0  0  0  0  0  0
  -14.5549  -24.8305   17.6613 C   0  0  0  0  0  0  0  0  0  0  0  0
  -14.8019  -25.4204   16.4055 C   0  0  0  0  0  0  0  0  0  0  0  0
  -14.0520  -26.5040   16.0163 C   0  0  0  0  0  0  0  0  0  0  0  0
  -13.1173  -27.0400   16.8092 N   0  0  0  0  0  0  0  0  0  0  0  0
  -12.9135  -26.4413   18.0201 C   0  0  0  0  0  0  0  0  0  0  0  0
  -11.6055  -21.2670   28.1190 H   0  0  0  0  0  0  0  0  0  0  0  0
  -11.8427  -21.2490   28.1205 H   0  0  0  0  0  0  0  0  0  0  0  0
  -11.8855  -25.5158   28.8428 H   0  0  0  0  0  0  0  0  0  0  0  0
  -10.0938  -24.6317   25.4285 H   0  0  0  0  0  0  0  0  0  0  0  0
  -13.4180  -22.9502   25.2612 H   0  0  0  0  0  0  0  0  0  0  0  0
  -13.7616  -22.8978   23.1483 H   0  0  0  0  0  0  0  0  0  0  0  0
  -12.9965  -21.2955   22.7200 H   0  0  0  0  0  0  0  0  0  0  0  0
  -11.4016  -23.0949   21.1728 H   0  0  0  0  0  0  0  0  0  0  0  0
  -12.4372  -22.2236   20.3188 H   0  0  0  0  0  0  0  0  0  0  0  0
  -11.8774  -24.8992   19.9460 H   0  0  0  0  0  0  0  0  0  0  0  0
  -13.3371  -25.4013   20.5501 H   0  0  0  0  0  0  0  0  0  0  0  0
  -15.2101  -24.0163   17.8857 H   0  0  0  0  0  0  0  0  0  0  0  0
  -15.5762  -25.0249   15.7562 H   0  0  0  0  0  0  0  0  0  0  0  0
  -14.1976  -26.9878   15.0566 H   0  0  0  0  0  0  0  0  0  0  0  0
  -12.1087  -26.9155   18.5661 H   0  0  0  0  0  0  0  0  0  0  0  0
  1  2  1  0
  2  3  2  0
  2  4  1  0
  4  5  1  0
  5  6  1  0
  6  7  2  0
  7  8  1  0
  8  9  1  0
  9 10  1  0
 10 11  2  0
 10 12  1  0
 12 13  1  0
 13 14  1  0
 14 15  1  0
 15 16  2  0
 16 17  1  0
 17 18  2  0
 18 19  1  0
 19 20  2  0
  8  4  2  0
 20 15  1  0
  1 21  1  0
  1 22  1  0
  5 23  1  0
  7 24  1  0
  9 25  1  0
 12 26  1  0
 12 27  1  0
 13 28  1  0
 13 29  1  0
 14 30  1  0
 14 31  1  0
 16 32  1  0
 17 33  1  0
 18 34  1  0
 20 35  1  0
M  END
>  <Energy>  (850) 
370.92788184196831

>  <compound_id>  (850) 
24320

>  <target_id>  (850) 
1

>  <reference_id>  (850) 
48

>  <inspiration_ids>  (850) 
[123, 48]

>  <energy_score>  (850) 
345.7454082421989

>  <distance_score>  (850) 
7.139708659217283

>  <path>  (850) 
/opt/xchem-fragalysis-2/maxwin/BulkDock/SCRATCH/511017/C24320-P48/C24320-P48.minimised.mol

>  <scratch_subdir>  (850) 
/opt/xchem-fragalysis-2/maxwin/BulkDock/SCRATCH/511017/C24320-P48

>  <fragmenstein_runtime>  (850) 
4.072120189666748

>  <fragmenstein_outcome>  (850) 
too moved

>  <fragmenstein_mode>  (850) 
expansion

>  <fragmenstein_error>  (850) 


$$$$
C24321-P123
     RDKit          3D

 35 36  0  0  0  0  0  0  0  0999 V2000
  -12.3554  -22.5472   29.2578 N   0  0  0  0  0  0  0  0  0  0  0  0
  -12.1695  -23.6809   29.1055 C   0  0  0  0  0  0  0  0  0  0  0  0
  -11.8961  -25.0942   28.8869 C   0  0  0  0  0  0  0  0  0  0  0  0
  -12.7912  -25.7225   27.9171 N   0  0  0  0  0  0  0  0  0  0  0  0
  -13.2483  -25.2309   26.7128 C   0  0  0  0  0  0  0  0  0  0  0  0
  -13.9201  -26.2594   26.0901 C   0  0  0  0  0  0  0  0  0  0  0  0
  -14.4369  -26.3311   24.8149 N   0  0  0  0  0  0  0  0  0  0  0  0
  -14.6526  -25.2829   23.7990 C   0  0  0  0  0  0  0  0  0  0  0  0
  -14.5058  -24.0943   23.8610 O   0  0  0  0  0  0  0  0  0  0  0  0
  -15.0624  -26.0279   22.3574 C   0  0  0  0  0  0  0  0  0  0  0  0
  -14.2920  -25.5671   20.6317 C   0  0  0  0  0  0  0  0  0  0  0  0
  -14.0754  -25.8641   18.7404 C   0  0  0  0  0  0  0  0  0  0  0  0
  -13.5035  -26.3044   17.3578 C   0  0  0  0  0  0  0  0  0  0  0  0
  -12.7054  -27.3777   16.9987 C   0  0  0  0  0  0  0  0  0  0  0  0
  -12.3476  -27.6126   15.6590 C   0  0  0  0  0  0  0  0  0  0  0  0
  -12.8472  -26.7887   14.6686 C   0  0  0  0  0  0  0  0  0  0  0  0
  -13.6864  -25.7758   14.9267 N   0  0  0  0  0  0  0  0  0  0  0  0
  -13.9868  -25.5735   16.2393 C   0  0  0  0  0  0  0  0  0  0  0  0
  -13.8447  -27.3224   27.0168 C   0  0  0  0  0  0  0  0  0  0  0  0
  -13.1282  -27.0233   28.0996 N   0  0  0  0  0  0  0  0  0  0  0  0
  -11.9874  -25.6496   29.8266 H   0  0  0  0  0  0  0  0  0  0  0  0
  -10.8818  -25.2440   28.5010 H   0  0  0  0  0  0  0  0  0  0  0  0
  -13.0132  -24.2250   26.3831 H   0  0  0  0  0  0  0  0  0  0  0  0
  -14.7415  -27.2204   24.4444 H   0  0  0  0  0  0  0  0  0  0  0  0
  -14.9026  -26.9766   22.7172 H   0  0  0  0  0  0  0  0  0  0  0  0
  -16.1710  -26.0777   22.2931 H   0  0  0  0  0  0  0  0  0  0  0  0
  -15.2181  -25.9719   20.4960 H   0  0  0  0  0  0  0  0  0  0  0  0
  -14.0684  -24.5179   20.6512 H   0  0  0  0  0  0  0  0  0  0  0  0
  -15.0675  -26.2152   18.4078 H   0  0  0  0  0  0  0  0  0  0  0  0
  -13.8510  -24.7985   18.5646 H   0  0  0  0  0  0  0  0  0  0  0  0
  -12.3368  -28.0766   17.7249 H   0  0  0  0  0  0  0  0  0  0  0  0
  -11.6946  -28.4422   15.4065 H   0  0  0  0  0  0  0  0  0  0  0  0
  -12.5906  -26.9388   13.6253 H   0  0  0  0  0  0  0  0  0  0  0  0
  -14.6693  -24.7359   16.3948 H   0  0  0  0  0  0  0  0  0  0  0  0
  -14.2527  -28.3213   26.9261 H   0  0  0  0  0  0  0  0  0  0  0  0
  1  2  3  0
  2  3  1  0
  3  4  1  0
  4  5  1  0
  5  6  2  0
  6  7  1  0
  7  8  1  0
  8  9  2  0
  8 10  1  0
 10 11  1  0
 11 12  1  0
 12 13  1  0
 13 14  2  0
 14 15  1  0
 15 16  2  0
 16 17  1  0
 17 18  2  0
  6 19  1  0
 19 20  2  0
 20  4  1  0
 18 13  1  0
  3 21  1  0
  3 22  1  0
  5 23  1  0
  7 24  1  0
 10 25  1  0
 10 26  1  0
 11 27  1  0
 11 28  1  0
 12 29  1  0
 12 30  1  0
 14 31  1  0
 15 32  1  0
 16 33  1  0
 18 34  1  0
 19 35  1  0
M  END
>  <Energy>  (851) 
251.46963392514834

>  <compound_id>  (851) 
24321

>  <target_id>  (851) 
1

>  <reference_id>  (851) 
123

>  <inspiration_ids>  (851) 
[123, 48]

>  <energy_score>  (851) 
209.20537669922237

>  <distance_score>  (851) 
6.958143944776031

>  <path>  (851) 
/opt/xchem-fragalysis-2/maxwin/BulkDock/SCRATCH/511017/C24321-P123/C24321-P123.minimised.mol

>  <scratch_subdir>  (851) 
/opt/xchem-fragalysis-2/maxwin/BulkDock/SCRATCH/511017/C24321-P123

>  <fragmenstein_runtime>  (851) 
8.677921533584595

>  <fragmenstein_outcome>  (851) 
too moved

>  <fragmenstein_mode>  (851) 
expansion

>  <fragmenstein_error>  (851) 


$$$$
C24321-P48
     RDKit          3D

 35 36  0  0  0  0  0  0  0  0999 V2000
  -14.4827  -22.1988   23.2822 N   0  0  0  0  0  0  0  0  0  0  0  0
  -13.5526  -21.5131   23.3545 C   0  0  0  0  0  0  0  0  0  0  0  0
  -12.4739  -20.5821   23.5993 C   0  0  0  0  0  0  0  0  0  0  0  0
  -11.2449  -20.8188   22.8784 N   0  0  0  0  0  0  0  0  0  0  0  0
  -10.6979  -20.0517   21.8658 C   0  0  0  0  0  0  0  0  0  0  0  0
   -9.5356  -20.6678   21.4147 C   0  0  0  0  0  0  0  0  0  0  0  0
   -8.7547  -20.5791   20.2293 N   0  0  0  0  0  0  0  0  0  0  0  0
   -8.7838  -19.5128   19.0554 C   0  0  0  0  0  0  0  0  0  0  0  0
   -9.4041  -18.5170   18.9455 O   0  0  0  0  0  0  0  0  0  0  0  0
   -7.8430  -20.0270   17.7949 C   0  0  0  0  0  0  0  0  0  0  0  0
   -8.7123  -20.5497   16.5383 C   0  0  0  0  0  0  0  0  0  0  0  0
   -8.2718  -21.1478   15.0231 C   0  0  0  0  0  0  0  0  0  0  0  0
   -9.2510  -22.0263   14.0068 C   0  0  0  0  0  0  0  0  0  0  0  0
   -9.7597  -23.2949   14.3242 C   0  0  0  0  0  0  0  0  0  0  0  0
  -10.5038  -24.0993   13.4295 C   0  0  0  0  0  0  0  0  0  0  0  0
  -10.7194  -23.6322   12.1601 C   0  0  0  0  0  0  0  0  0  0  0  0
  -10.2147  -22.4577   11.7564 N   0  0  0  0  0  0  0  0  0  0  0  0
   -9.5266  -21.6857   12.6777 C   0  0  0  0  0  0  0  0  0  0  0  0
   -9.3857  -21.6647   22.4168 C   0  0  0  0  0  0  0  0  0  0  0  0
  -10.4510  -21.8187   23.2259 N   0  0  0  0  0  0  0  0  0  0  0  0
  -12.1990  -20.6799   24.6468 H   0  0  0  0  0  0  0  0  0  0  0  0
  -12.7868  -19.5567   23.3829 H   0  0  0  0  0  0  0  0  0  0  0  0
  -11.2498  -19.2225   21.4428 H   0  0  0  0  0  0  0  0  0  0  0  0
   -8.0486  -21.2729   20.0383 H   0  0  0  0  0  0  0  0  0  0  0  0
   -7.2520  -19.1607   17.4758 H   0  0  0  0  0  0  0  0  0  0  0  0
   -7.1358  -20.7790   18.1488 H   0  0  0  0  0  0  0  0  0  0  0  0
   -9.3689  -21.3204   16.8380 H   0  0  0  0  0  0  0  0  0  0  0  0
   -9.2664  -19.6570   16.2347 H   0  0  0  0  0  0  0  0  0  0  0  0
   -7.3700  -21.7508   15.1647 H   0  0  0  0  0  0  0  0  0  0  0  0
   -7.9623  -20.2717   14.4380 H   0  0  0  0  0  0  0  0  0  0  0  0
   -9.5383  -23.6857   15.3060 H   0  0  0  0  0  0  0  0  0  0  0  0
  -10.8756  -25.0674   13.7436 H   0  0  0  0  0  0  0  0  0  0  0  0
  -11.2852  -24.1955   11.4281 H   0  0  0  0  0  0  0  0  0  0  0  0
   -9.1622  -20.7439   12.2729 H   0  0  0  0  0  0  0  0  0  0  0  0
   -8.5341  -22.3251   22.5360 H   0  0  0  0  0  0  0  0  0  0  0  0
  1  2  3  0
  2  3  1  0
  3  4  1  0
  4  5  1  0
  5  6  2  0
  6  7  1  0
  7  8  1  0
  8  9  2  0
  8 10  1  0
 10 11  1  0
 11 12  1  0
 12 13  1  0
 13 14  2  0
 14 15  1  0
 15 16  2  0
 16 17  1  0
 17 18  2  0
  6 19  1  0
 19 20  2  0
 20  4  1  0
 18 13  1  0
  3 21  1  0
  3 22  1  0
  5 23  1  0
  7 24  1  0
 10 25  1  0
 10 26  1  0
 11 27  1  0
 11 28  1  0
 12 29  1  0
 12 30  1  0
 14 31  1  0
 15 32  1  0
 16 33  1  0
 18 34  1  0
 19 35  1  0
M  END
>  <Energy>  (852) 
96.146847457368935

>  <compound_id>  (852) 
24321

>  <target_id>  (852) 
1

>  <reference_id>  (852) 
48

>  <inspiration_ids>  (852) 
[123, 48]

>  <energy_score>  (852) 
54.46474825546326

>  <distance_score>  (852) 
9.43443935448308

>  <path>  (852) 
/opt/xchem-fragalysis-2/maxwin/BulkDock/SCRATCH/511017/C24321-P48/C24321-P48.minimised.mol

>  <scratch_subdir>  (852) 
/opt/xchem-fragalysis-2/maxwin/BulkDock/SCRATCH/511017/C24321-P48

>  <fragmenstein_runtime>  (852) 
2.813829183578491

>  <fragmenstein_outcome>  (852) 
too moved

>  <fragmenstein_mode>  (852) 
expansion

>  <fragmenstein_error>  (852) 


$$$$
C24322-P123
     RDKit          3D

 34 35  0  0  0  0  0  0  0  0999 V2000
  -11.8873  -22.5849   30.0649 C   0  0  0  0  0  0  0  0  0  0  0  0
  -11.9345  -23.1965   28.7579 N   0  0  0  0  0  0  0  0  0  0  0  0
  -11.8186  -22.5679   27.5454 C   0  0  0  0  0  0  0  0  0  0  0  0
  -12.2663  -23.4268   26.5848 C   0  0  0  0  0  0  0  0  0  0  0  0
  -12.5752  -23.3607   25.2365 N   0  0  0  0  0  0  0  0  0  0  0  0
  -12.4391  -22.2052   24.2249 C   0  0  0  0  0  0  0  0  0  0  0  0
  -12.0668  -21.0684   24.3735 O   0  0  0  0  0  0  0  0  0  0  0  0
  -12.7828  -22.8279   22.9243 C   0  0  0  0  0  0  0  0  0  0  0  0
  -12.8786  -22.4962   21.4464 C   0  0  0  0  0  0  0  0  0  0  0  0
  -13.0495  -23.7269   20.0153 C   0  0  0  0  0  0  0  0  0  0  0  0
  -14.1113  -24.6733   19.2206 C   0  0  0  0  0  0  0  0  0  0  0  0
  -14.9717  -25.6232   19.7736 C   0  0  0  0  0  0  0  0  0  0  0  0
  -15.8373  -26.3829   18.9605 C   0  0  0  0  0  0  0  0  0  0  0  0
  -15.8273  -26.2071   17.5879 C   0  0  0  0  0  0  0  0  0  0  0  0
  -15.0778  -25.2811   16.9920 N   0  0  0  0  0  0  0  0  0  0  0  0
  -14.3058  -24.5297   17.8250 C   0  0  0  0  0  0  0  0  0  0  0  0
  -12.4715  -24.6265   27.3313 C   0  0  0  0  0  0  0  0  0  0  0  0
  -12.2622  -24.4958   28.6389 N   0  0  0  0  0  0  0  0  0  0  0  0
  -11.3804  -23.2631   30.7552 H   0  0  0  0  0  0  0  0  0  0  0  0
  -11.3535  -21.6348   29.9989 H   0  0  0  0  0  0  0  0  0  0  0  0
  -12.9143  -22.4172   30.3967 H   0  0  0  0  0  0  0  0  0  0  0  0
  -11.5275  -21.5420   27.4987 H   0  0  0  0  0  0  0  0  0  0  0  0
  -12.9944  -24.1487   24.7877 H   0  0  0  0  0  0  0  0  0  0  0  0
  -11.7795  -23.2414   22.9274 H   0  0  0  0  0  0  0  0  0  0  0  0
  -13.6742  -23.4333   23.1345 H   0  0  0  0  0  0  0  0  0  0  0  0
  -13.7722  -21.9125   21.5807 H   0  0  0  0  0  0  0  0  0  0  0  0
  -12.0197  -21.8756   21.1633 H   0  0  0  0  0  0  0  0  0  0  0  0
  -12.9277  -22.9651   19.2407 H   0  0  0  0  0  0  0  0  0  0  0  0
  -12.1620  -24.3455   20.0486 H   0  0  0  0  0  0  0  0  0  0  0  0
  -15.0401  -25.7407   20.8497 H   0  0  0  0  0  0  0  0  0  0  0  0
  -16.5127  -27.1063   19.4052 H   0  0  0  0  0  0  0  0  0  0  0  0
  -16.4628  -26.7948   16.9344 H   0  0  0  0  0  0  0  0  0  0  0  0
  -13.8776  -23.6879   17.3085 H   0  0  0  0  0  0  0  0  0  0  0  0
  -12.8044  -25.5875   26.9663 H   0  0  0  0  0  0  0  0  0  0  0  0
  1  2  1  0
  2  3  1  0
  3  4  2  0
  4  5  1  0
  5  6  1  0
  6  7  2  0
  6  8  1  0
  8  9  1  0
  9 10  1  0
 10 11  1  0
 11 12  2  0
 12 13  1  0
 13 14  2  0
 14 15  1  0
 15 16  2  0
  4 17  1  0
 17 18  2  0
 18  2  1  0
 16 11  1  0
  1 19  1  0
  1 20  1  0
  1 21  1  0
  3 22  1  0
  5 23  1  0
  8 24  1  0
  8 25  1  0
  9 26  1  0
  9 27  1  0
 10 28  1  0
 10 29  1  0
 12 30  1  0
 13 31  1  0
 14 32  1  0
 16 33  1  0
 17 34  1  0
M  END
>  <Energy>  (853) 
131.6450613305924

>  <compound_id>  (853) 
24322

>  <target_id>  (853) 
1

>  <reference_id>  (853) 
123

>  <inspiration_ids>  (853) 
[123, 48]

>  <energy_score>  (853) 
66.96298154674008

>  <distance_score>  (853) 
7.787210800745856

>  <path>  (853) 
/opt/xchem-fragalysis-2/maxwin/BulkDock/SCRATCH/511017/C24322-P123/C24322-P123.minimised.mol

>  <scratch_subdir>  (853) 
/opt/xchem-fragalysis-2/maxwin/BulkDock/SCRATCH/511017/C24322-P123

>  <fragmenstein_runtime>  (853) 
5.490219831466675

>  <fragmenstein_outcome>  (853) 
too moved

>  <fragmenstein_mode>  (853) 
expansion

>  <fragmenstein_error>  (853) 


$$$$
C24322-P48
     RDKit          3D

 34 35  0  0  0  0  0  0  0  0999 V2000
  -13.6083  -27.8009   28.2296 C   0  0  0  0  0  0  0  0  0  0  0  0
  -13.8377  -27.0927   26.9935 N   0  0  0  0  0  0  0  0  0  0  0  0
  -14.4475  -27.5653   25.8507 C   0  0  0  0  0  0  0  0  0  0  0  0
  -14.4391  -26.5785   24.8651 C   0  0  0  0  0  0  0  0  0  0  0  0
  -14.8265  -26.7229   23.4791 N   0  0  0  0  0  0  0  0  0  0  0  0
  -14.8184  -25.6545   22.2801 C   0  0  0  0  0  0  0  0  0  0  0  0
  -14.5687  -24.5002   22.2883 O   0  0  0  0  0  0  0  0  0  0  0  0
  -15.1125  -26.3692   20.7851 C   0  0  0  0  0  0  0  0  0  0  0  0
  -14.1395  -26.0456   19.4760 C   0  0  0  0  0  0  0  0  0  0  0  0
  -14.7831  -25.9400   17.8435 C   0  0  0  0  0  0  0  0  0  0  0  0
  -14.0744  -25.8842   16.3237 C   0  0  0  0  0  0  0  0  0  0  0  0
  -12.8925  -26.5258   15.9239 C   0  0  0  0  0  0  0  0  0  0  0  0
  -12.4162  -26.4447   14.5821 C   0  0  0  0  0  0  0  0  0  0  0  0
  -13.1354  -25.7391   13.6274 C   0  0  0  0  0  0  0  0  0  0  0  0
  -14.2960  -25.1315   13.9188 N   0  0  0  0  0  0  0  0  0  0  0  0
  -14.7216  -25.2272   15.2325 C   0  0  0  0  0  0  0  0  0  0  0  0
  -13.8307  -25.5035   25.6052 C   0  0  0  0  0  0  0  0  0  0  0  0
  -13.4532  -25.8192   26.8674 N   0  0  0  0  0  0  0  0  0  0  0  0
  -12.5317  -27.8270   28.4155 H   0  0  0  0  0  0  0  0  0  0  0  0
  -14.1259  -27.2695   29.0319 H   0  0  0  0  0  0  0  0  0  0  0  0
  -13.9976  -28.8179   28.1415 H   0  0  0  0  0  0  0  0  0  0  0  0
  -14.8098  -28.5829   25.8180 H   0  0  0  0  0  0  0  0  0  0  0  0
  -15.1669  -27.6123   23.1397 H   0  0  0  0  0  0  0  0  0  0  0  0
  -15.1193  -27.4546   20.9310 H   0  0  0  0  0  0  0  0  0  0  0  0
  -16.1298  -26.0596   20.5184 H   0  0  0  0  0  0  0  0  0  0  0  0
  -13.5510  -25.1439   19.6508 H   0  0  0  0  0  0  0  0  0  0  0  0
  -13.4906  -26.9166   19.3566 H   0  0  0  0  0  0  0  0  0  0  0  0
  -15.4193  -25.0463   17.8749 H   0  0  0  0  0  0  0  0  0  0  0  0
  -15.4522  -26.8080   17.7697 H   0  0  0  0  0  0  0  0  0  0  0  0
  -12.3106  -27.0805   16.6571 H   0  0  0  0  0  0  0  0  0  0  0  0
  -11.4817  -26.9280   14.3133 H   0  0  0  0  0  0  0  0  0  0  0  0
  -12.7926  -25.6520   12.6026 H   0  0  0  0  0  0  0  0  0  0  0  0
  -15.6631  -24.7090   15.4154 H   0  0  0  0  0  0  0  0  0  0  0  0
  -13.6703  -24.4870   25.2612 H   0  0  0  0  0  0  0  0  0  0  0  0
  1  2  1  0
  2  3  1  0
  3  4  2  0
  4  5  1  0
  5  6  1  0
  6  7  2  0
  6  8  1  0
  8  9  1  0
  9 10  1  0
 10 11  1  0
 11 12  2  0
 12 13  1  0
 13 14  2  0
 14 15  1  0
 15 16  2  0
  4 17  1  0
 17 18  2  0
 18  2  1  0
 16 11  1  0
  1 19  1  0
  1 20  1  0
  1 21  1  0
  3 22  1  0
  5 23  1  0
  8 24  1  0
  8 25  1  0
  9 26  1  0
  9 27  1  0
 10 28  1  0
 10 29  1  0
 12 30  1  0
 13 31  1  0
 14 32  1  0
 16 33  1  0
 17 34  1  0
M  END
>  <Energy>  (854) 
95.918944560047365

>  <compound_id>  (854) 
24322

>  <target_id>  (854) 
1

>  <reference_id>  (854) 
48

>  <inspiration_ids>  (854) 
[123, 48]

>  <energy_score>  (854) 
39.86640704740117

>  <distance_score>  (854) 
7.348901575837358

>  <path>  (854) 
/opt/xchem-fragalysis-2/maxwin/BulkDock/SCRATCH/511017/C24322-P48/C24322-P48.minimised.mol

>  <scratch_subdir>  (854) 
/opt/xchem-fragalysis-2/maxwin/BulkDock/SCRATCH/511017/C24322-P48

>  <fragmenstein_runtime>  (854) 
3.8566553592681885

>  <fragmenstein_outcome>  (854) 
too moved

>  <fragmenstein_mode>  (854) 
expansion

>  <fragmenstein_error>  (854) 


$$$$
C24324-P123
     RDKit          3D

 40 41  0  0  0  0  0  0  0  0999 V2000
  -11.1230  -25.3820   31.8811 C   0  0  0  0  0  0  0  0  0  0  0  0
  -10.9079  -25.0232   30.5146 O   0  0  0  0  0  0  0  0  0  0  0  0
  -11.3441  -25.9172   29.5810 C   0  0  0  0  0  0  0  0  0  0  0  0
  -11.9133  -26.9774   29.8140 O   0  0  0  0  0  0  0  0  0  0  0  0
  -10.9225  -25.4487   28.2185 C   0  0  0  0  0  0  0  0  0  0  0  0
  -11.9895  -24.9907   27.3474 N   0  0  0  0  0  0  0  0  0  0  0  0
  -11.8022  -24.1957   26.2392 C   0  0  0  0  0  0  0  0  0  0  0  0
  -12.9990  -24.1009   25.5787 C   0  0  0  0  0  0  0  0  0  0  0  0
  -13.3177  -23.4535   24.3896 N   0  0  0  0  0  0  0  0  0  0  0  0
  -12.4637  -22.7787   23.4029 C   0  0  0  0  0  0  0  0  0  0  0  0
  -11.2891  -22.5471   23.4152 O   0  0  0  0  0  0  0  0  0  0  0  0
  -13.2455  -22.4197   22.1094 C   0  0  0  0  0  0  0  0  0  0  0  0
  -12.6961  -22.9221   20.5567 C   0  0  0  0  0  0  0  0  0  0  0  0
  -13.3725  -24.3447   19.4393 C   0  0  0  0  0  0  0  0  0  0  0  0
  -13.7947  -25.1228   17.8346 C   0  0  0  0  0  0  0  0  0  0  0  0
  -13.1640  -26.2696   17.2803 C   0  0  0  0  0  0  0  0  0  0  0  0
  -13.3963  -26.7140   15.9637 C   0  0  0  0  0  0  0  0  0  0  0  0
  -14.2775  -26.0192   15.1705 C   0  0  0  0  0  0  0  0  0  0  0  0
  -14.9364  -24.9423   15.6136 N   0  0  0  0  0  0  0  0  0  0  0  0
  -14.6823  -24.5451   16.8999 C   0  0  0  0  0  0  0  0  0  0  0  0
  -13.8315  -24.9726   26.3305 C   0  0  0  0  0  0  0  0  0  0  0  0
  -13.2314  -25.5058   27.3985 N   0  0  0  0  0  0  0  0  0  0  0  0
  -11.1742  -26.4639   32.0289 H   0  0  0  0  0  0  0  0  0  0  0  0
  -10.2812  -24.9984   32.4649 H   0  0  0  0  0  0  0  0  0  0  0  0
  -12.0354  -24.8993   32.2363 H   0  0  0  0  0  0  0  0  0  0  0  0
  -10.4162  -26.2750   27.7090 H   0  0  0  0  0  0  0  0  0  0  0  0
  -10.2039  -24.6268   28.3114 H   0  0  0  0  0  0  0  0  0  0  0  0
  -10.8327  -23.7940   26.0217 H   0  0  0  0  0  0  0  0  0  0  0  0
  -14.2796  -23.3993   24.0878 H   0  0  0  0  0  0  0  0  0  0  0  0
  -13.1734  -21.3391   22.1916 H   0  0  0  0  0  0  0  0  0  0  0  0
  -14.2675  -22.6986   22.2854 H   0  0  0  0  0  0  0  0  0  0  0  0
  -11.6461  -23.0850   20.7433 H   0  0  0  0  0  0  0  0  0  0  0  0
  -12.5868  -22.0946   19.8810 H   0  0  0  0  0  0  0  0  0  0  0  0
  -13.3520  -23.5278   18.6989 H   0  0  0  0  0  0  0  0  0  0  0  0
  -12.4132  -24.7666   19.5511 H   0  0  0  0  0  0  0  0  0  0  0  0
  -12.3890  -26.8299   17.7770 H   0  0  0  0  0  0  0  0  0  0  0  0
  -12.8642  -27.5763   15.5750 H   0  0  0  0  0  0  0  0  0  0  0  0
  -14.4805  -26.3159   14.1473 H   0  0  0  0  0  0  0  0  0  0  0  0
  -15.3007  -23.7083   17.1561 H   0  0  0  0  0  0  0  0  0  0  0  0
  -14.8586  -25.2488   26.1284 H   0  0  0  0  0  0  0  0  0  0  0  0
  1  2  1  0
  2  3  1  0
  3  4  2  0
  3  5  1  0
  5  6  1  0
  6  7  1  0
  7  8  2  0
  8  9  1  0
  9 10  1  0
 10 11  2  0
 10 12  1  0
 12 13  1  0
 13 14  1  0
 14 15  1  0
 15 16  2  0
 16 17  1  0
 17 18  2  0
 18 19  1  0
 19 20  2  0
  8 21  1  0
 21 22  2  0
 22  6  1  0
 20 15  1  0
  1 23  1  0
  1 24  1  0
  1 25  1  0
  5 26  1  0
  5 27  1  0
  7 28  1  0
  9 29  1  0
 12 30  1  0
 12 31  1  0
 13 32  1  0
 13 33  1  0
 14 34  1  0
 14 35  1  0
 16 36  1  0
 17 37  1  0
 18 38  1  0
 20 39  1  0
 21 40  1  0
M  END
>  <Energy>  (855) 
191.90761690592825

>  <compound_id>  (855) 
24324

>  <target_id>  (855) 
1

>  <reference_id>  (855) 
123

>  <inspiration_ids>  (855) 
[123, 48]

>  <energy_score>  (855) 
127.24950786942759

>  <distance_score>  (855) 
7.086079806457848

>  <path>  (855) 
/opt/xchem-fragalysis-2/maxwin/BulkDock/SCRATCH/511017/C24324-P123/C24324-P123.minimised.mol

>  <scratch_subdir>  (855) 
/opt/xchem-fragalysis-2/maxwin/BulkDock/SCRATCH/511017/C24324-P123

>  <fragmenstein_runtime>  (855) 
9.696383476257324

>  <fragmenstein_outcome>  (855) 
too moved

>  <fragmenstein_mode>  (855) 
expansion

>  <fragmenstein_error>  (855) 


$$$$
C24324-P48
     RDKit          3D

 40 41  0  0  0  0  0  0  0  0999 V2000
  -16.6035  -28.2756   26.4134 C   0  0  0  0  0  0  0  0  0  0  0  0
  -17.1148  -27.0106   25.9901 O   0  0  0  0  0  0  0  0  0  0  0  0
  -16.1773  -26.1309   25.5145 C   0  0  0  0  0  0  0  0  0  0  0  0
  -14.9916  -26.4114   25.3930 O   0  0  0  0  0  0  0  0  0  0  0  0
  -16.8680  -24.8388   25.1750 C   0  0  0  0  0  0  0  0  0  0  0  0
  -16.0508  -23.6501   24.9451 N   0  0  0  0  0  0  0  0  0  0  0  0
  -14.6897  -23.4841   24.8195 C   0  0  0  0  0  0  0  0  0  0  0  0
  -14.5144  -22.3336   24.0585 C   0  0  0  0  0  0  0  0  0  0  0  0
  -13.8568  -22.4497   22.8790 N   0  0  0  0  0  0  0  0  0  0  0  0
  -12.5087  -22.2533   22.5452 C   0  0  0  0  0  0  0  0  0  0  0  0
  -11.5929  -21.8518   23.1975 O   0  0  0  0  0  0  0  0  0  0  0  0
  -12.3064  -22.8154   20.9938 C   0  0  0  0  0  0  0  0  0  0  0  0
  -12.5898  -24.4203   20.1658 C   0  0  0  0  0  0  0  0  0  0  0  0
  -13.6332  -25.1373   18.9013 C   0  0  0  0  0  0  0  0  0  0  0  0
  -13.3301  -25.8061   17.5238 C   0  0  0  0  0  0  0  0  0  0  0  0
  -12.2674  -26.6652   17.2679 C   0  0  0  0  0  0  0  0  0  0  0  0
  -12.0136  -27.1149   15.9670 C   0  0  0  0  0  0  0  0  0  0  0  0
  -12.8656  -26.7264   14.9471 C   0  0  0  0  0  0  0  0  0  0  0  0
  -13.9494  -25.9535   15.1475 N   0  0  0  0  0  0  0  0  0  0  0  0
  -14.1617  -25.5327   16.4209 C   0  0  0  0  0  0  0  0  0  0  0  0
  -15.8062  -21.7399   24.0866 C   0  0  0  0  0  0  0  0  0  0  0  0
  -16.7365  -22.5410   24.6040 N   0  0  0  0  0  0  0  0  0  0  0  0
  -17.4189  -28.8292   26.8868 H   0  0  0  0  0  0  0  0  0  0  0  0
  -16.2503  -28.8469   25.5509 H   0  0  0  0  0  0  0  0  0  0  0  0
  -15.8023  -28.1454   27.1476 H   0  0  0  0  0  0  0  0  0  0  0  0
  -17.5532  -24.5766   25.9901 H   0  0  0  0  0  0  0  0  0  0  0  0
  -17.4426  -24.9989   24.2552 H   0  0  0  0  0  0  0  0  0  0  0  0
  -14.0136  -24.3024   25.0001 H   0  0  0  0  0  0  0  0  0  0  0  0
  -14.3409  -22.7119   22.0860 H   0  0  0  0  0  0  0  0  0  0  0  0
  -11.2232  -22.6782   21.0182 H   0  0  0  0  0  0  0  0  0  0  0  0
  -12.5300  -22.0884   20.2617 H   0  0  0  0  0  0  0  0  0  0  0  0
  -12.8624  -25.1273   20.8782 H   0  0  0  0  0  0  0  0  0  0  0  0
  -11.5915  -24.7805   20.0916 H   0  0  0  0  0  0  0  0  0  0  0  0
  -14.3032  -24.3640   18.5556 H   0  0  0  0  0  0  0  0  0  0  0  0
  -14.1957  -25.9247   19.4168 H   0  0  0  0  0  0  0  0  0  0  0  0
  -11.6068  -26.9574   18.0707 H   0  0  0  0  0  0  0  0  0  0  0  0
  -11.1570  -27.7477   15.7593 H   0  0  0  0  0  0  0  0  0  0  0  0
  -12.6987  -27.0445   13.9225 H   0  0  0  0  0  0  0  0  0  0  0  0
  -15.0427  -24.9024   16.5289 H   0  0  0  0  0  0  0  0  0  0  0  0
  -16.1268  -20.8273   23.6014 H   0  0  0  0  0  0  0  0  0  0  0  0
  1  2  1  0
  2  3  1  0
  3  4  2  0
  3  5  1  0
  5  6  1  0
  6  7  1  0
  7  8  2  0
  8  9  1  0
  9 10  1  0
 10 11  2  0
 10 12  1  0
 12 13  1  0
 13 14  1  0
 14 15  1  0
 15 16  2  0
 16 17  1  0
 17 18  2  0
 18 19  1  0
 19 20  2  0
  8 21  1  0
 21 22  2  0
 22  6  1  0
 20 15  1  0
  1 23  1  0
  1 24  1  0
  1 25  1  0
  5 26  1  0
  5 27  1  0
  7 28  1  0
  9 29  1  0
 12 30  1  0
 12 31  1  0
 13 32  1  0
 13 33  1  0
 14 34  1  0
 14 35  1  0
 16 36  1  0
 17 37  1  0
 18 38  1  0
 20 39  1  0
 21 40  1  0
M  END
>  <Energy>  (856) 
166.25032244173144

>  <compound_id>  (856) 
24324

>  <target_id>  (856) 
1

>  <reference_id>  (856) 
48

>  <inspiration_ids>  (856) 
[123, 48]

>  <energy_score>  (856) 
101.59221340522811

>  <distance_score>  (856) 
8.21820109659966

>  <path>  (856) 
/opt/xchem-fragalysis-2/maxwin/BulkDock/SCRATCH/511017/C24324-P48/C24324-P48.minimised.mol

>  <scratch_subdir>  (856) 
/opt/xchem-fragalysis-2/maxwin/BulkDock/SCRATCH/511017/C24324-P48

>  <fragmenstein_runtime>  (856) 
4.306216716766357

>  <fragmenstein_outcome>  (856) 
too moved

>  <fragmenstein_mode>  (856) 
expansion

>  <fragmenstein_error>  (856) 


$$$$
C16011-P52
     RDKit          3D

 40 43  0  0  0  0  0  0  0  0999 V2000
  -10.0018  -22.2055   14.2329 C   0  0  0  0  0  0  0  0  0  0  0  0
   -9.9233  -21.1356   15.4090 C   0  0  0  0  0  0  0  0  0  0  0  0
  -10.1982  -19.6603   15.6289 C   0  0  0  0  0  0  0  0  0  0  0  0
   -9.5499  -18.8805   17.2563 C   0  0  0  0  0  0  0  0  0  0  0  0
   -9.1769  -17.7312   17.4011 O   0  0  0  0  0  0  0  0  0  0  0  0
   -9.2688  -19.9674   18.2520 C   0  0  0  0  0  0  0  0  0  0  0  0
   -8.9639  -20.3565   19.5322 C   0  0  0  0  0  0  0  0  0  0  0  0
   -9.5337  -21.3957   20.6293 N   0  0  0  0  0  0  0  0  0  0  0  0
  -10.0658  -21.3855   22.0745 C   0  0  0  0  0  0  0  0  0  0  0  0
  -11.3967  -21.1365   22.2641 C   0  0  0  0  0  0  0  0  0  0  0  0
  -12.2275  -21.4990   23.3822 C   0  0  0  0  0  0  0  0  0  0  0  0
  -11.7226  -22.2774   24.3657 C   0  0  0  0  0  0  0  0  0  0  0  0
  -12.1865  -22.6701   25.5838 N   0  0  0  0  0  0  0  0  0  0  0  0
  -11.2209  -23.4479   26.1611 C   0  0  0  0  0  0  0  0  0  0  0  0
  -11.2722  -23.8779   27.5443 C   0  0  0  0  0  0  0  0  0  0  0  0
  -11.1716  -22.9516   28.5855 C   0  0  0  0  0  0  0  0  0  0  0  0
  -11.1735  -23.3976   29.9044 C   0  0  0  0  0  0  0  0  0  0  0  0
  -11.2792  -24.7586   30.1374 C   0  0  0  0  0  0  0  0  0  0  0  0
  -11.4146  -25.6825   29.1592 N   0  0  0  0  0  0  0  0  0  0  0  0
  -11.3867  -25.2186   27.8856 C   0  0  0  0  0  0  0  0  0  0  0  0
  -10.2315  -23.6327   25.2987 N   0  0  0  0  0  0  0  0  0  0  0  0
  -10.4529  -22.7509   24.2329 C   0  0  0  0  0  0  0  0  0  0  0  0
   -9.5911  -22.1330   23.1681 C   0  0  0  0  0  0  0  0  0  0  0  0
   -8.6410  -20.9593   17.5287 C   0  0  0  0  0  0  0  0  0  0  0  0
   -7.4333  -20.9425   17.6904 O   0  0  0  0  0  0  0  0  0  0  0  0
   -9.3424  -21.7521   16.5914 O   0  0  0  0  0  0  0  0  0  0  0  0
  -10.4767  -21.7872   13.3432 H   0  0  0  0  0  0  0  0  0  0  0  0
   -8.9972  -22.5741   13.9870 H   0  0  0  0  0  0  0  0  0  0  0  0
  -10.4622  -23.1605   14.4789 H   0  0  0  0  0  0  0  0  0  0  0  0
  -10.7720  -19.0721   14.9433 H   0  0  0  0  0  0  0  0  0  0  0  0
   -8.1946  -19.6892   19.9699 H   0  0  0  0  0  0  0  0  0  0  0  0
   -9.9624  -22.1906   20.1995 H   0  0  0  0  0  0  0  0  0  0  0  0
  -11.7621  -20.5960   21.4206 H   0  0  0  0  0  0  0  0  0  0  0  0
  -13.2663  -21.2864   23.4993 H   0  0  0  0  0  0  0  0  0  0  0  0
  -13.0114  -22.2870   26.0167 H   0  0  0  0  0  0  0  0  0  0  0  0
  -11.0449  -21.8895   28.3791 H   0  0  0  0  0  0  0  0  0  0  0  0
  -11.0684  -22.7024   30.7316 H   0  0  0  0  0  0  0  0  0  0  0  0
  -11.2488  -25.1499   31.1501 H   0  0  0  0  0  0  0  0  0  0  0  0
  -11.4634  -25.9852   27.1217 H   0  0  0  0  0  0  0  0  0  0  0  0
   -8.5630  -22.4705   23.1875 H   0  0  0  0  0  0  0  0  0  0  0  0
  1  2  1  0
  2  3  2  0
  3  4  1  0
  4  5  2  0
  4  6  1  0
  6  7  2  3
  7  8  1  0
  8  9  1  0
  9 10  2  0
 10 11  1  0
 11 12  2  0
 12 13  1  0
 13 14  1  0
 14 15  1  0
 15 16  2  0
 16 17  1  0
 17 18  2  0
 18 19  1  0
 19 20  2  0
 14 21  2  0
 21 22  1  0
 22 23  2  0
  6 24  1  0
 24 25  2  0
 24 26  1  0
 26  2  1  0
 23  9  1  0
 22 12  1  0
 20 15  1  0
  1 27  1  0
  1 28  1  0
  1 29  1  0
  3 30  1  0
  7 31  1  0
  8 32  1  0
 10 33  1  0
 11 34  1  0
 13 35  1  0
 16 36  1  0
 17 37  1  0
 18 38  1  0
 20 39  1  0
 23 40  1  0
M  END
>  <Energy>  (857) 
298.54200783671638

>  <compound_id>  (857) 
16011

>  <target_id>  (857) 
1

>  <reference_id>  (857) 
52

>  <inspiration_ids>  (857) 
[52, 48]

>  <energy_score>  (857) 
207.8923185864453

>  <distance_score>  (857) 
7.8507077286436235

>  <path>  (857) 
/opt/xchem-fragalysis-2/maxwin/BulkDock/SCRATCH/511017/C16011-P52/C16011-P52.minimised.mol

>  <scratch_subdir>  (857) 
/opt/xchem-fragalysis-2/maxwin/BulkDock/SCRATCH/511017/C16011-P52

>  <fragmenstein_runtime>  (857) 
12.911913633346558

>  <fragmenstein_outcome>  (857) 
too moved

>  <fragmenstein_mode>  (857) 
expansion

>  <fragmenstein_error>  (857) 


$$$$
C16011-P48
     RDKit          3D

 40 43  0  0  0  0  0  0  0  0999 V2000
  -10.8261  -19.7180   13.5105 C   0  0  0  0  0  0  0  0  0  0  0  0
  -10.2715  -20.1312   14.7810 C   0  0  0  0  0  0  0  0  0  0  0  0
   -9.9019  -21.3806   14.9021 C   0  0  0  0  0  0  0  0  0  0  0  0
   -9.5148  -21.7786   16.2178 C   0  0  0  0  0  0  0  0  0  0  0  0
   -9.5462  -22.9999   15.9841 O   0  0  0  0  0  0  0  0  0  0  0  0
   -8.9973  -20.6253   17.6670 C   0  0  0  0  0  0  0  0  0  0  0  0
   -9.0129  -20.4815   19.0823 C   0  0  0  0  0  0  0  0  0  0  0  0
   -9.5423  -21.3391   20.4458 N   0  0  0  0  0  0  0  0  0  0  0  0
  -10.7745  -21.5899   21.3200 C   0  0  0  0  0  0  0  0  0  0  0  0
  -11.8220  -22.3714   20.9506 C   0  0  0  0  0  0  0  0  0  0  0  0
  -12.8361  -22.8740   21.7699 C   0  0  0  0  0  0  0  0  0  0  0  0
  -12.8997  -22.5148   23.1077 C   0  0  0  0  0  0  0  0  0  0  0  0
  -13.6850  -22.8958   24.1695 N   0  0  0  0  0  0  0  0  0  0  0  0
  -12.8336  -22.7293   25.2378 C   0  0  0  0  0  0  0  0  0  0  0  0
  -12.5991  -23.7097   26.3004 C   0  0  0  0  0  0  0  0  0  0  0  0
  -11.8260  -23.4259   27.4209 C   0  0  0  0  0  0  0  0  0  0  0  0
  -11.5801  -24.4239   28.3664 C   0  0  0  0  0  0  0  0  0  0  0  0
  -12.1066  -25.6875   28.1625 C   0  0  0  0  0  0  0  0  0  0  0  0
  -12.8543  -26.0164   27.0882 N   0  0  0  0  0  0  0  0  0  0  0  0
  -13.0548  -25.0264   26.1852 C   0  0  0  0  0  0  0  0  0  0  0  0
  -12.1461  -21.6331   24.9550 N   0  0  0  0  0  0  0  0  0  0  0  0
  -11.9248  -21.7174   23.6098 C   0  0  0  0  0  0  0  0  0  0  0  0
  -10.8856  -21.3088   22.7136 C   0  0  0  0  0  0  0  0  0  0  0  0
   -9.3913  -19.1147   17.4820 C   0  0  0  0  0  0  0  0  0  0  0  0
   -9.0546  -18.0701   18.0205 O   0  0  0  0  0  0  0  0  0  0  0  0
  -10.0502  -19.0248   15.9555 O   0  0  0  0  0  0  0  0  0  0  0  0
  -11.0474  -18.6552   13.6189 H   0  0  0  0  0  0  0  0  0  0  0  0
  -10.1299  -19.8635   12.6785 H   0  0  0  0  0  0  0  0  0  0  0  0
  -11.6905  -20.3469   13.3308 H   0  0  0  0  0  0  0  0  0  0  0  0
  -10.0104  -22.1072   14.1020 H   0  0  0  0  0  0  0  0  0  0  0  0
   -8.4743  -19.6347   19.5219 H   0  0  0  0  0  0  0  0  0  0  0  0
   -9.0513  -20.7547   21.1412 H   0  0  0  0  0  0  0  0  0  0  0  0
  -12.2427  -22.2602   19.9480 H   0  0  0  0  0  0  0  0  0  0  0  0
  -13.5689  -23.5450   21.2996 H   0  0  0  0  0  0  0  0  0  0  0  0
  -14.4454  -23.5541   24.1176 H   0  0  0  0  0  0  0  0  0  0  0  0
  -11.4586  -22.4152   27.5867 H   0  0  0  0  0  0  0  0  0  0  0  0
  -11.0299  -24.2049   29.2707 H   0  0  0  0  0  0  0  0  0  0  0  0
  -11.9505  -26.4795   28.8899 H   0  0  0  0  0  0  0  0  0  0  0  0
  -13.6704  -25.3395   25.3456 H   0  0  0  0  0  0  0  0  0  0  0  0
  -10.1781  -20.7013   23.1838 H   0  0  0  0  0  0  0  0  0  0  0  0
  1  2  1  0
  2  3  2  0
  3  4  1  0
  4  5  2  0
  4  6  1  0
  6  7  2  3
  7  8  1  0
  8  9  1  0
  9 10  2  0
 10 11  1  0
 11 12  2  0
 12 13  1  0
 13 14  1  0
 14 15  1  0
 15 16  2  0
 16 17  1  0
 17 18  2  0
 18 19  1  0
 19 20  2  0
 14 21  2  0
 21 22  1  0
 22 23  2  0
  6 24  1  0
 24 25  2  0
 24 26  1  0
 26  2  1  0
 23  9  1  0
 22 12  1  0
 20 15  1  0
  1 27  1  0
  1 28  1  0
  1 29  1  0
  3 30  1  0
  7 31  1  0
  8 32  1  0
 10 33  1  0
 11 34  1  0
 13 35  1  0
 16 36  1  0
 17 37  1  0
 18 38  1  0
 20 39  1  0
 23 40  1  0
M  END
>  <Energy>  (858) 
329.61004917787687

>  <compound_id>  (858) 
16011

>  <target_id>  (858) 
1

>  <reference_id>  (858) 
48

>  <inspiration_ids>  (858) 
[52, 48]

>  <energy_score>  (858) 
238.9603599276046

>  <distance_score>  (858) 
8.13904609168842

>  <path>  (858) 
/opt/xchem-fragalysis-2/maxwin/BulkDock/SCRATCH/511017/C16011-P48/C16011-P48.minimised.mol

>  <scratch_subdir>  (858) 
/opt/xchem-fragalysis-2/maxwin/BulkDock/SCRATCH/511017/C16011-P48

>  <fragmenstein_runtime>  (858) 
7.50856614112854

>  <fragmenstein_outcome>  (858) 
too moved

>  <fragmenstein_mode>  (858) 
expansion

>  <fragmenstein_error>  (858) 


$$$$
C16013-P52
     RDKit          3D

 41 43  0  0  0  0  0  0  0  0999 V2000
  -14.0162  -23.1878   24.1120 C   0  0  0  0  0  0  0  0  0  0  0  0
  -13.0363  -22.4772   23.3118 N   0  0  0  0  0  0  0  0  0  0  0  0
  -12.3992  -22.5636   21.8539 C   0  0  0  0  0  0  0  0  0  0  0  0
  -12.5170  -23.6256   20.1892 C   0  0  0  0  0  0  0  0  0  0  0  0
  -13.4545  -24.7486   19.0174 N   0  0  0  0  0  0  0  0  0  0  0  0
  -13.4476  -26.2635   19.1579 C   0  0  0  0  0  0  0  0  0  0  0  0
  -14.4440  -27.2736   18.5234 C   0  0  0  0  0  0  0  0  0  0  0  0
  -14.2004  -28.4711   18.4127 O   0  0  0  0  0  0  0  0  0  0  0  0
  -15.6628  -26.8526   18.1544 O   0  0  0  0  0  0  0  0  0  0  0  0
  -14.0155  -24.5963   17.5981 C   0  0  0  0  0  0  0  0  0  0  0  0
  -13.8779  -25.5574   16.3481 C   0  0  0  0  0  0  0  0  0  0  0  0
  -14.8383  -25.4252   15.3187 C   0  0  0  0  0  0  0  0  0  0  0  0
  -14.6877  -26.0657   14.0851 C   0  0  0  0  0  0  0  0  0  0  0  0
  -13.5665  -26.8429   13.8904 C   0  0  0  0  0  0  0  0  0  0  0  0
  -12.6230  -27.0165   14.8355 N   0  0  0  0  0  0  0  0  0  0  0  0
  -12.7938  -26.3782   16.0260 C   0  0  0  0  0  0  0  0  0  0  0  0
  -11.1797  -22.0620   22.2141 N   0  0  0  0  0  0  0  0  0  0  0  0
  -11.0585  -22.2465   23.6083 C   0  0  0  0  0  0  0  0  0  0  0  0
  -10.3301  -23.1527   24.5014 C   0  0  0  0  0  0  0  0  0  0  0  0
  -10.7766  -23.5784   25.7856 C   0  0  0  0  0  0  0  0  0  0  0  0
  -11.6861  -22.8080   26.4166 C   0  0  0  0  0  0  0  0  0  0  0  0
  -12.1270  -21.7478   25.6503 C   0  0  0  0  0  0  0  0  0  0  0  0
  -12.1722  -21.7366   24.2027 C   0  0  0  0  0  0  0  0  0  0  0  0
  -13.9168  -24.2626   24.0062 H   0  0  0  0  0  0  0  0  0  0  0  0
  -13.8670  -23.0975   25.1849 H   0  0  0  0  0  0  0  0  0  0  0  0
  -14.9898  -22.7122   24.0281 H   0  0  0  0  0  0  0  0  0  0  0  0
  -12.4701  -22.7440   19.5519 H   0  0  0  0  0  0  0  0  0  0  0  0
  -11.7500  -24.3776   20.3263 H   0  0  0  0  0  0  0  0  0  0  0  0
  -12.5193  -26.6294   18.7248 H   0  0  0  0  0  0  0  0  0  0  0  0
  -13.7027  -26.4191   20.1928 H   0  0  0  0  0  0  0  0  0  0  0  0
  -16.0708  -27.6574   17.7695 H   0  0  0  0  0  0  0  0  0  0  0  0
  -15.1024  -24.5641   17.7359 H   0  0  0  0  0  0  0  0  0  0  0  0
  -13.7738  -23.6557   17.1810 H   0  0  0  0  0  0  0  0  0  0  0  0
  -15.7077  -24.7876   15.4674 H   0  0  0  0  0  0  0  0  0  0  0  0
  -15.4259  -25.9493   13.3001 H   0  0  0  0  0  0  0  0  0  0  0  0
  -13.3905  -27.3629   12.9540 H   0  0  0  0  0  0  0  0  0  0  0  0
  -11.9507  -26.5095   16.6991 H   0  0  0  0  0  0  0  0  0  0  0  0
   -9.3610  -23.5092   24.1754 H   0  0  0  0  0  0  0  0  0  0  0  0
  -10.2983  -24.3528   26.3557 H   0  0  0  0  0  0  0  0  0  0  0  0
  -11.7879  -22.8288   27.4954 H   0  0  0  0  0  0  0  0  0  0  0  0
  -11.9511  -20.7934   26.1430 H   0  0  0  0  0  0  0  0  0  0  0  0
  1  2  1  0
  2  3  1  0
  3  4  1  0
  4  5  1  0
  5  6  1  0
  6  7  1  0
  7  8  2  0
  7  9  1  0
  5 10  1  0
 10 11  1  0
 11 12  2  0
 12 13  1  0
 13 14  2  0
 14 15  1  0
 15 16  2  0
  3 17  2  0
 17 18  1  0
 18 19  2  0
 19 20  1  0
 20 21  2  0
 21 22  1  0
 22 23  2  0
 23  2  1  0
 16 11  1  0
 23 18  1  0
  1 24  1  0
  1 25  1  0
  1 26  1  0
  4 27  1  0
  4 28  1  0
  6 29  1  0
  6 30  1  0
  9 31  1  0
 10 32  1  0
 10 33  1  0
 12 34  1  0
 13 35  1  0
 14 36  1  0
 16 37  1  0
 19 38  1  0
 20 39  1  0
 21 40  1  0
 22 41  1  0
M  END
>  <Energy>  (859) 
423.99050472602966

>  <compound_id>  (859) 
16013

>  <target_id>  (859) 
1

>  <reference_id>  (859) 
52

>  <inspiration_ids>  (859) 
[52, 48]

>  <energy_score>  (859) 
322.78895225395917

>  <distance_score>  (859) 
7.847777689514913

>  <path>  (859) 
/opt/xchem-fragalysis-2/maxwin/BulkDock/SCRATCH/511017/C16013-P52/C16013-P52.minimised.mol

>  <scratch_subdir>  (859) 
/opt/xchem-fragalysis-2/maxwin/BulkDock/SCRATCH/511017/C16013-P52

>  <fragmenstein_runtime>  (859) 
13.219170570373535

>  <fragmenstein_outcome>  (859) 
too moved

>  <fragmenstein_mode>  (859) 
expansion

>  <fragmenstein_error>  (859) 


$$$$
C16013-P48
     RDKit          3D

 41 43  0  0  0  0  0  0  0  0999 V2000
  -14.6472  -25.1336   24.2371 C   0  0  0  0  0  0  0  0  0  0  0  0
  -13.8621  -23.8887   23.9913 N   0  0  0  0  0  0  0  0  0  0  0  0
  -13.2299  -22.9961   22.6985 C   0  0  0  0  0  0  0  0  0  0  0  0
  -12.6892  -23.5056   20.7998 C   0  0  0  0  0  0  0  0  0  0  0  0
  -13.3887  -24.7965   19.5215 N   0  0  0  0  0  0  0  0  0  0  0  0
  -13.7681  -26.2547   19.5948 C   0  0  0  0  0  0  0  0  0  0  0  0
  -12.8503  -27.1906   18.7449 C   0  0  0  0  0  0  0  0  0  0  0  0
  -11.9544  -26.9009   17.9707 O   0  0  0  0  0  0  0  0  0  0  0  0
  -13.1871  -28.4953   18.9158 O   0  0  0  0  0  0  0  0  0  0  0  0
  -14.1213  -24.5083   17.9950 C   0  0  0  0  0  0  0  0  0  0  0  0
  -14.2835  -25.3546   16.6658 C   0  0  0  0  0  0  0  0  0  0  0  0
  -14.4398  -24.6512   15.4421 C   0  0  0  0  0  0  0  0  0  0  0  0
  -14.5722  -25.2676   14.1903 C   0  0  0  0  0  0  0  0  0  0  0  0
  -14.6684  -26.6328   14.1664 C   0  0  0  0  0  0  0  0  0  0  0  0
  -14.7171  -27.3577   15.2956 N   0  0  0  0  0  0  0  0  0  0  0  0
  -14.5756  -26.6984   16.4895 C   0  0  0  0  0  0  0  0  0  0  0  0
  -12.6565  -22.0186   23.4384 N   0  0  0  0  0  0  0  0  0  0  0  0
  -12.6553  -22.3767   24.8357 C   0  0  0  0  0  0  0  0  0  0  0  0
  -12.1536  -21.8025   26.0000 C   0  0  0  0  0  0  0  0  0  0  0  0
  -11.8808  -22.4181   27.2426 C   0  0  0  0  0  0  0  0  0  0  0  0
  -12.0810  -23.7596   27.3445 C   0  0  0  0  0  0  0  0  0  0  0  0
  -12.7796  -24.3525   26.3120 C   0  0  0  0  0  0  0  0  0  0  0  0
  -13.1701  -23.5823   25.1493 C   0  0  0  0  0  0  0  0  0  0  0  0
  -15.7106  -24.8653   24.3024 H   0  0  0  0  0  0  0  0  0  0  0  0
  -14.4150  -25.9195   23.5256 H   0  0  0  0  0  0  0  0  0  0  0  0
  -14.4558  -25.5909   25.2028 H   0  0  0  0  0  0  0  0  0  0  0  0
  -12.5496  -22.5383   20.3185 H   0  0  0  0  0  0  0  0  0  0  0  0
  -11.7186  -23.9669   20.9038 H   0  0  0  0  0  0  0  0  0  0  0  0
  -14.7800  -26.3846   19.1918 H   0  0  0  0  0  0  0  0  0  0  0  0
  -13.9222  -26.7177   20.5600 H   0  0  0  0  0  0  0  0  0  0  0  0
  -12.5861  -28.9476   18.2821 H   0  0  0  0  0  0  0  0  0  0  0  0
  -15.1660  -24.2632   18.1464 H   0  0  0  0  0  0  0  0  0  0  0  0
  -13.6256  -23.6323   17.6873 H   0  0  0  0  0  0  0  0  0  0  0  0
  -14.4760  -23.5651   15.4402 H   0  0  0  0  0  0  0  0  0  0  0  0
  -14.6224  -24.6839   13.2789 H   0  0  0  0  0  0  0  0  0  0  0  0
  -14.7633  -27.1877   13.2395 H   0  0  0  0  0  0  0  0  0  0  0  0
  -14.7814  -27.3688   17.3125 H   0  0  0  0  0  0  0  0  0  0  0  0
  -11.8973  -20.8119   25.7725 H   0  0  0  0  0  0  0  0  0  0  0  0
  -11.4426  -21.8593   28.0594 H   0  0  0  0  0  0  0  0  0  0  0  0
  -11.8010  -24.3039   28.2390 H   0  0  0  0  0  0  0  0  0  0  0  0
  -12.9781  -25.4149   26.3963 H   0  0  0  0  0  0  0  0  0  0  0  0
  1  2  1  0
  2  3  1  0
  3  4  1  0
  4  5  1  0
  5  6  1  0
  6  7  1  0
  7  8  2  0
  7  9  1  0
  5 10  1  0
 10 11  1  0
 11 12  2  0
 12 13  1  0
 13 14  2  0
 14 15  1  0
 15 16  2  0
  3 17  2  0
 17 18  1  0
 18 19  2  0
 19 20  1  0
 20 21  2  0
 21 22  1  0
 22 23  2  0
 23  2  1  0
 16 11  1  0
 23 18  1  0
  1 24  1  0
  1 25  1  0
  1 26  1  0
  4 27  1  0
  4 28  1  0
  6 29  1  0
  6 30  1  0
  9 31  1  0
 10 32  1  0
 10 33  1  0
 12 34  1  0
 13 35  1  0
 14 36  1  0
 16 37  1  0
 19 38  1  0
 20 39  1  0
 21 40  1  0
 22 41  1  0
M  END
>  <Energy>  (860) 
395.13840906551314

>  <compound_id>  (860) 
16013

>  <target_id>  (860) 
1

>  <reference_id>  (860) 
48

>  <inspiration_ids>  (860) 
[52, 48]

>  <energy_score>  (860) 
293.9368565934359

>  <distance_score>  (860) 
7.673623592366553

>  <path>  (860) 
/opt/xchem-fragalysis-2/maxwin/BulkDock/SCRATCH/511017/C16013-P48/C16013-P48.minimised.mol

>  <scratch_subdir>  (860) 
/opt/xchem-fragalysis-2/maxwin/BulkDock/SCRATCH/511017/C16013-P48

>  <fragmenstein_runtime>  (860) 
7.216013193130493

>  <fragmenstein_outcome>  (860) 
too moved

>  <fragmenstein_mode>  (860) 
expansion

>  <fragmenstein_error>  (860) 


$$$$
C16015-P52
     RDKit          3D

 34 36  0  0  0  0  0  0  0  0999 V2000
   -9.7152  -22.3215   19.9014 C   0  0  0  0  0  0  0  0  0  0  0  0
   -9.5439  -21.1500   20.1757 N   0  0  0  0  0  0  0  0  0  0  0  0
   -9.0589  -21.0362   18.1684 C   0  0  0  0  0  0  0  0  0  0  0  0
   -9.4350  -22.0306   16.4131 C   0  0  0  0  0  0  0  0  0  0  0  0
   -9.1336  -23.3228   15.6902 C   0  0  0  0  0  0  0  0  0  0  0  0
   -9.5479  -23.9649   14.4317 C   0  0  0  0  0  0  0  0  0  0  0  0
  -10.1297  -23.2173   13.4865 C   0  0  0  0  0  0  0  0  0  0  0  0
  -10.3003  -21.9611   13.8038 N   0  0  0  0  0  0  0  0  0  0  0  0
   -9.9418  -21.5279   15.1793 C   0  0  0  0  0  0  0  0  0  0  0  0
  -10.7033  -20.6658   20.9202 C   0  0  0  0  0  0  0  0  0  0  0  0
  -11.6793  -20.1655   20.5403 O   0  0  0  0  0  0  0  0  0  0  0  0
  -10.8056  -20.9367   22.4794 C   0  0  0  0  0  0  0  0  0  0  0  0
  -12.0209  -20.8937   23.0611 N   0  0  0  0  0  0  0  0  0  0  0  0
  -12.2310  -21.9343   23.9278 C   0  0  0  0  0  0  0  0  0  0  0  0
  -13.3368  -22.4929   24.6029 C   0  0  0  0  0  0  0  0  0  0  0  0
  -13.1684  -23.5016   25.5852 C   0  0  0  0  0  0  0  0  0  0  0  0
  -11.9053  -23.9365   25.9335 C   0  0  0  0  0  0  0  0  0  0  0  0
  -11.6653  -25.1933   27.3145 Br  0  0  0  0  0  0  0  0  0  0  0  0
  -10.8307  -23.5167   25.1598 C   0  0  0  0  0  0  0  0  0  0  0  0
  -11.0452  -22.5696   24.0882 C   0  0  0  0  0  0  0  0  0  0  0  0
  -10.1601  -21.9210   23.1765 N   0  0  0  0  0  0  0  0  0  0  0  0
  -10.8172  -22.2119   20.1068 H   0  0  0  0  0  0  0  0  0  0  0  0
   -9.2501  -22.2518   20.9117 H   0  0  0  0  0  0  0  0  0  0  0  0
   -9.8607  -23.2334   20.4115 H   0  0  0  0  0  0  0  0  0  0  0  0
   -8.0199  -20.7449   18.0273 H   0  0  0  0  0  0  0  0  0  0  0  0
   -9.4912  -20.0993   17.8565 H   0  0  0  0  0  0  0  0  0  0  0  0
   -8.3680  -23.9928   16.0382 H   0  0  0  0  0  0  0  0  0  0  0  0
   -9.2794  -24.9953   14.2309 H   0  0  0  0  0  0  0  0  0  0  0  0
  -10.4145  -23.5593   12.5065 H   0  0  0  0  0  0  0  0  0  0  0  0
  -10.1737  -20.4736   15.2082 H   0  0  0  0  0  0  0  0  0  0  0  0
  -14.3307  -22.1121   24.4077 H   0  0  0  0  0  0  0  0  0  0  0  0
  -14.0462  -23.9289   26.0591 H   0  0  0  0  0  0  0  0  0  0  0  0
   -9.8309  -23.8605   25.3294 H   0  0  0  0  0  0  0  0  0  0  0  0
   -9.2604  -22.2990   22.9233 H   0  0  0  0  0  0  0  0  0  0  0  0
  1  2  1  0
  2  3  1  0
  3  4  1  0
  4  5  2  0
  5  6  1  0
  6  7  2  0
  7  8  1  0
  8  9  2  0
  2 10  1  0
 10 11  2  0
 10 12  1  0
 12 13  2  0
 13 14  1  0
 14 15  2  0
 15 16  1  0
 16 17  2  0
 17 18  1  0
 17 19  1  0
 19 20  2  0
 20 21  1  0
  9  4  1  0
 21 12  1  0
 20 14  1  0
  1 22  1  0
  1 23  1  0
  1 24  1  0
  3 25  1  0
  3 26  1  0
  5 27  1  0
  6 28  1  0
  7 29  1  0
  9 30  1  0
 15 31  1  0
 16 32  1  0
 19 33  1  0
 21 34  1  0
M  END
>  <Energy>  (861) 
534.61708055565839

>  <compound_id>  (861) 
16015

>  <target_id>  (861) 
1

>  <reference_id>  (861) 
52

>  <inspiration_ids>  (861) 
[52, 48]

>  <energy_score>  (861) 
488.37754335899695

>  <distance_score>  (861) 
8.070171940651191

>  <path>  (861) 
/opt/xchem-fragalysis-2/maxwin/BulkDock/SCRATCH/511017/C16015-P52/C16015-P52.minimised.mol

>  <scratch_subdir>  (861) 
/opt/xchem-fragalysis-2/maxwin/BulkDock/SCRATCH/511017/C16015-P52

>  <fragmenstein_runtime>  (861) 
8.833434820175171

>  <fragmenstein_outcome>  (861) 
too moved

>  <fragmenstein_mode>  (861) 
expansion

>  <fragmenstein_error>  (861) 


$$$$
C16015-P48
     RDKit          3D

 34 36  0  0  0  0  0  0  0  0999 V2000
  -14.2773  -25.7681   19.4733 C   0  0  0  0  0  0  0  0  0  0  0  0
  -12.9703  -25.0781   19.8924 N   0  0  0  0  0  0  0  0  0  0  0  0
  -12.8451  -25.7243   18.1645 C   0  0  0  0  0  0  0  0  0  0  0  0
  -13.3869  -26.8649   17.2344 C   0  0  0  0  0  0  0  0  0  0  0  0
  -13.0124  -28.2007   17.3419 C   0  0  0  0  0  0  0  0  0  0  0  0
  -13.2926  -29.0818   16.2922 C   0  0  0  0  0  0  0  0  0  0  0  0
  -13.9345  -28.6059   15.1573 C   0  0  0  0  0  0  0  0  0  0  0  0
  -14.3211  -27.3279   15.0075 N   0  0  0  0  0  0  0  0  0  0  0  0
  -14.0327  -26.4952   16.0326 C   0  0  0  0  0  0  0  0  0  0  0  0
  -12.7094  -23.3557   20.5826 C   0  0  0  0  0  0  0  0  0  0  0  0
  -12.5015  -22.4192   19.8602 O   0  0  0  0  0  0  0  0  0  0  0  0
  -12.8681  -22.7614   22.3274 C   0  0  0  0  0  0  0  0  0  0  0  0
  -14.0111  -22.8983   23.0463 N   0  0  0  0  0  0  0  0  0  0  0  0
  -13.6804  -23.2396   24.2993 C   0  0  0  0  0  0  0  0  0  0  0  0
  -14.0742  -24.3573   25.0680 C   0  0  0  0  0  0  0  0  0  0  0  0
  -13.2082  -24.7732   26.0913 C   0  0  0  0  0  0  0  0  0  0  0  0
  -12.3255  -23.8552   26.6155 C   0  0  0  0  0  0  0  0  0  0  0  0
  -11.3369  -24.3094   28.1513 Br  0  0  0  0  0  0  0  0  0  0  0  0
  -12.1566  -22.6220   25.9842 C   0  0  0  0  0  0  0  0  0  0  0  0
  -12.5699  -22.5094   24.6273 C   0  0  0  0  0  0  0  0  0  0  0  0
  -12.0582  -22.0844   23.3263 N   0  0  0  0  0  0  0  0  0  0  0  0
  -13.9855  -26.8325   19.3882 H   0  0  0  0  0  0  0  0  0  0  0  0
  -14.7849  -25.3510   18.5822 H   0  0  0  0  0  0  0  0  0  0  0  0
  -15.0878  -26.1750   20.0724 H   0  0  0  0  0  0  0  0  0  0  0  0
  -13.2430  -24.8759   17.5634 H   0  0  0  0  0  0  0  0  0  0  0  0
  -11.7848  -26.0094   18.1000 H   0  0  0  0  0  0  0  0  0  0  0  0
  -12.4622  -28.5529   18.2090 H   0  0  0  0  0  0  0  0  0  0  0  0
  -12.9990  -30.1242   16.3525 H   0  0  0  0  0  0  0  0  0  0  0  0
  -14.1600  -29.2625   14.3218 H   0  0  0  0  0  0  0  0  0  0  0  0
  -14.3201  -25.4636   15.8348 H   0  0  0  0  0  0  0  0  0  0  0  0
  -14.8718  -25.0041   24.7217 H   0  0  0  0  0  0  0  0  0  0  0  0
  -13.3070  -25.7646   26.5209 H   0  0  0  0  0  0  0  0  0  0  0  0
  -11.6590  -21.8290   26.5272 H   0  0  0  0  0  0  0  0  0  0  0  0
  -11.1225  -21.7472   23.1453 H   0  0  0  0  0  0  0  0  0  0  0  0
  1  2  1  0
  2  3  1  0
  3  4  1  0
  4  5  2  0
  5  6  1  0
  6  7  2  0
  7  8  1  0
  8  9  2  0
  2 10  1  0
 10 11  2  0
 10 12  1  0
 12 13  2  0
 13 14  1  0
 14 15  2  0
 15 16  1  0
 16 17  2  0
 17 18  1  0
 17 19  1  0
 19 20  2  0
 20 21  1  0
  9  4  1  0
 21 12  1  0
 20 14  1  0
  1 22  1  0
  1 23  1  0
  1 24  1  0
  3 25  1  0
  3 26  1  0
  5 27  1  0
  6 28  1  0
  7 29  1  0
  9 30  1  0
 15 31  1  0
 16 32  1  0
 19 33  1  0
 21 34  1  0
M  END
>  <Energy>  (862) 
423.27951338760994

>  <compound_id>  (862) 
16015

>  <target_id>  (862) 
1

>  <reference_id>  (862) 
48

>  <inspiration_ids>  (862) 
[52, 48]

>  <energy_score>  (862) 
377.0399761909509

>  <distance_score>  (862) 
8.238220587949348

>  <path>  (862) 
/opt/xchem-fragalysis-2/maxwin/BulkDock/SCRATCH/511017/C16015-P48/C16015-P48.minimised.mol

>  <scratch_subdir>  (862) 
/opt/xchem-fragalysis-2/maxwin/BulkDock/SCRATCH/511017/C16015-P48

>  <fragmenstein_runtime>  (862) 
6.419153928756714

>  <fragmenstein_outcome>  (862) 
too moved

>  <fragmenstein_mode>  (862) 
expansion

>  <fragmenstein_error>  (862) 


$$$$
C16016-P52
     RDKit          3D

 40 43  0  0  0  0  0  0  0  0999 V2000
  -11.9607  -28.4469   18.6966 C   0  0  0  0  0  0  0  0  0  0  0  0
  -10.6024  -27.8203   19.1020 N   0  0  0  0  0  0  0  0  0  0  0  0
  -10.2051  -28.4373   17.7041 C   0  0  0  0  0  0  0  0  0  0  0  0
  -10.5114  -27.6818   16.4051 C   0  0  0  0  0  0  0  0  0  0  0  0
  -10.0736  -27.8388   15.1005 C   0  0  0  0  0  0  0  0  0  0  0  0
  -10.8999  -26.9900   14.3027 C   0  0  0  0  0  0  0  0  0  0  0  0
  -10.9477  -26.8078   12.8450 C   0  0  0  0  0  0  0  0  0  0  0  0
  -10.2461  -27.6315   11.9589 C   0  0  0  0  0  0  0  0  0  0  0  0
  -10.3614  -27.4403   10.5774 C   0  0  0  0  0  0  0  0  0  0  0  0
  -11.1798  -26.4249   10.1124 C   0  0  0  0  0  0  0  0  0  0  0  0
  -11.8729  -25.6037   10.9242 N   0  0  0  0  0  0  0  0  0  0  0  0
  -11.7350  -25.8103   12.2642 C   0  0  0  0  0  0  0  0  0  0  0  0
  -11.7634  -26.3513   15.1051 N   0  0  0  0  0  0  0  0  0  0  0  0
  -11.4725  -26.7212   16.4006 O   0  0  0  0  0  0  0  0  0  0  0  0
  -10.1584  -28.2598   20.7774 C   0  0  0  0  0  0  0  0  0  0  0  0
   -9.4994  -29.2711   20.8930 O   0  0  0  0  0  0  0  0  0  0  0  0
  -10.4005  -27.2831   22.5221 C   0  0  0  0  0  0  0  0  0  0  0  0
   -9.6560  -27.4612   23.9685 N   0  0  0  0  0  0  0  0  0  0  0  0
  -10.2102  -26.3559   25.4059 C   0  0  0  0  0  0  0  0  0  0  0  0
   -9.9325  -26.2225   26.8073 C   0  0  0  0  0  0  0  0  0  0  0  0
  -10.8349  -25.5584   27.6550 C   0  0  0  0  0  0  0  0  0  0  0  0
  -12.0949  -25.2117   27.1761 C   0  0  0  0  0  0  0  0  0  0  0  0
  -12.4854  -25.5612   25.8751 C   0  0  0  0  0  0  0  0  0  0  0  0
  -11.4814  -26.0854   25.0430 C   0  0  0  0  0  0  0  0  0  0  0  0
  -11.4234  -27.1837   24.0492 N   0  0  0  0  0  0  0  0  0  0  0  0
  -12.7686  -27.8600   19.1206 H   0  0  0  0  0  0  0  0  0  0  0  0
  -12.3100  -28.4005   17.6565 H   0  0  0  0  0  0  0  0  0  0  0  0
  -12.0034  -29.5118   18.9697 H   0  0  0  0  0  0  0  0  0  0  0  0
   -9.1107  -28.4365   17.7008 H   0  0  0  0  0  0  0  0  0  0  0  0
  -10.3929  -29.5233   17.6305 H   0  0  0  0  0  0  0  0  0  0  0  0
   -9.3044  -28.5187   14.7667 H   0  0  0  0  0  0  0  0  0  0  0  0
   -9.6099  -28.4332   12.3225 H   0  0  0  0  0  0  0  0  0  0  0  0
   -9.8227  -28.0749    9.8820 H   0  0  0  0  0  0  0  0  0  0  0  0
  -11.3006  -26.2418    9.0489 H   0  0  0  0  0  0  0  0  0  0  0  0
  -12.3068  -25.1178   12.8795 H   0  0  0  0  0  0  0  0  0  0  0  0
   -9.0154  -26.6515   27.1838 H   0  0  0  0  0  0  0  0  0  0  0  0
  -10.5719  -25.3772   28.6942 H   0  0  0  0  0  0  0  0  0  0  0  0
  -12.8169  -24.7519   27.8477 H   0  0  0  0  0  0  0  0  0  0  0  0
  -13.5161  -25.4703   25.5513 H   0  0  0  0  0  0  0  0  0  0  0  0
  -12.2071  -27.7922   24.1233 H   0  0  0  0  0  0  0  0  0  0  0  0
  1  2  1  0
  2  3  1  0
  3  4  1  0
  4  5  2  0
  5  6  1  0
  6  7  1  0
  7  8  2  0
  8  9  1  0
  9 10  2  0
 10 11  1  0
 11 12  2  0
  6 13  2  0
 13 14  1  0
  2 15  1  0
 15 16  2  0
 15 17  1  0
 17 18  2  0
 18 19  1  0
 19 20  2  0
 20 21  1  0
 21 22  2  0
 22 23  1  0
 23 24  2  0
 24 25  1  0
 14  4  1  0
 25 17  1  0
 12  7  1  0
 24 19  1  0
  1 26  1  0
  1 27  1  0
  1 28  1  0
  3 29  1  0
  3 30  1  0
  5 31  1  0
  8 32  1  0
  9 33  1  0
 10 34  1  0
 12 35  1  0
 20 36  1  0
 21 37  1  0
 22 38  1  0
 23 39  1  0
 25 40  1  0
M  END
>  <Energy>  (863) 
551.6488279747872

>  <compound_id>  (863) 
16016

>  <target_id>  (863) 
1

>  <reference_id>  (863) 
52

>  <inspiration_ids>  (863) 
[52, 48]

>  <energy_score>  (863) 
497.61944407343367

>  <distance_score>  (863) 
6.680637393416071

>  <path>  (863) 
/opt/xchem-fragalysis-2/maxwin/BulkDock/SCRATCH/511017/C16016-P52/C16016-P52.minimised.mol

>  <scratch_subdir>  (863) 
/opt/xchem-fragalysis-2/maxwin/BulkDock/SCRATCH/511017/C16016-P52

>  <fragmenstein_runtime>  (863) 
15.73121190071106

>  <fragmenstein_outcome>  (863) 
too moved

>  <fragmenstein_mode>  (863) 
expansion

>  <fragmenstein_error>  (863) 


$$$$
C16016-P48
     RDKit          3D

 40 43  0  0  0  0  0  0  0  0999 V2000
   -7.9755  -19.4400   19.3671 C   0  0  0  0  0  0  0  0  0  0  0  0
   -9.4766  -20.0941   19.1819 N   0  0  0  0  0  0  0  0  0  0  0  0
   -8.7488  -20.5091   17.5993 C   0  0  0  0  0  0  0  0  0  0  0  0
   -9.5874  -21.5448   16.0610 C   0  0  0  0  0  0  0  0  0  0  0  0
  -10.0688  -21.4328   14.6561 C   0  0  0  0  0  0  0  0  0  0  0  0
  -10.1996  -22.7531   14.0106 C   0  0  0  0  0  0  0  0  0  0  0  0
  -10.7263  -23.4027   12.8028 C   0  0  0  0  0  0  0  0  0  0  0  0
   -9.9465  -24.3516   12.1172 C   0  0  0  0  0  0  0  0  0  0  0  0
  -10.4995  -25.2031   11.1528 C   0  0  0  0  0  0  0  0  0  0  0  0
  -11.8477  -25.0931   10.8828 C   0  0  0  0  0  0  0  0  0  0  0  0
  -12.6530  -24.2371   11.5379 N   0  0  0  0  0  0  0  0  0  0  0  0
  -12.0763  -23.4544   12.5009 C   0  0  0  0  0  0  0  0  0  0  0  0
   -9.7687  -23.6117   14.8988 N   0  0  0  0  0  0  0  0  0  0  0  0
   -9.3577  -22.9117   15.9466 O   0  0  0  0  0  0  0  0  0  0  0  0
  -10.0259  -21.2074   20.6006 C   0  0  0  0  0  0  0  0  0  0  0  0
   -9.7876  -22.3379   20.5211 O   0  0  0  0  0  0  0  0  0  0  0  0
  -10.9919  -20.9471   21.9832 C   0  0  0  0  0  0  0  0  0  0  0  0
  -10.8272  -20.6851   23.3026 N   0  0  0  0  0  0  0  0  0  0  0  0
  -11.8496  -21.3874   24.0768 C   0  0  0  0  0  0  0  0  0  0  0  0
  -12.1544  -21.6930   25.4680 C   0  0  0  0  0  0  0  0  0  0  0  0
  -12.7531  -22.8786   25.9128 C   0  0  0  0  0  0  0  0  0  0  0  0
  -13.6594  -23.3889   25.0611 C   0  0  0  0  0  0  0  0  0  0  0  0
  -13.6760  -22.8427   23.7904 C   0  0  0  0  0  0  0  0  0  0  0  0
  -12.6168  -22.1043   23.2380 C   0  0  0  0  0  0  0  0  0  0  0  0
  -12.0557  -21.8857   22.0026 N   0  0  0  0  0  0  0  0  0  0  0  0
   -7.0558  -19.6414   18.8005 H   0  0  0  0  0  0  0  0  0  0  0  0
   -7.7103  -19.3125   20.4208 H   0  0  0  0  0  0  0  0  0  0  0  0
   -8.0853  -18.4300   18.9370 H   0  0  0  0  0  0  0  0  0  0  0  0
   -7.6988  -20.7954   17.6257 H   0  0  0  0  0  0  0  0  0  0  0  0
   -9.0121  -21.3945   18.0663 H   0  0  0  0  0  0  0  0  0  0  0  0
  -10.4188  -20.5315   14.1728 H   0  0  0  0  0  0  0  0  0  0  0  0
   -8.9012  -24.4884   12.3844 H   0  0  0  0  0  0  0  0  0  0  0  0
   -9.8861  -25.9360   10.6392 H   0  0  0  0  0  0  0  0  0  0  0  0
  -12.3291  -25.7166   10.1357 H   0  0  0  0  0  0  0  0  0  0  0  0
  -12.8024  -22.8862   13.0623 H   0  0  0  0  0  0  0  0  0  0  0  0
  -11.6845  -21.1928   26.2967 H   0  0  0  0  0  0  0  0  0  0  0  0
  -12.6882  -23.1624   26.9543 H   0  0  0  0  0  0  0  0  0  0  0  0
  -14.4127  -24.1021   25.3576 H   0  0  0  0  0  0  0  0  0  0  0  0
  -14.5706  -23.0067   23.2784 H   0  0  0  0  0  0  0  0  0  0  0  0
  -12.2674  -22.4120   21.1691 H   0  0  0  0  0  0  0  0  0  0  0  0
  1  2  1  0
  2  3  1  0
  3  4  1  0
  4  5  2  0
  5  6  1  0
  6  7  1  0
  7  8  2  0
  8  9  1  0
  9 10  2  0
 10 11  1  0
 11 12  2  0
  6 13  2  0
 13 14  1  0
  2 15  1  0
 15 16  2  0
 15 17  1  0
 17 18  2  0
 18 19  1  0
 19 20  2  0
 20 21  1  0
 21 22  2  0
 22 23  1  0
 23 24  2  0
 24 25  1  0
 14  4  1  0
 25 17  1  0
 12  7  1  0
 24 19  1  0
  1 26  1  0
  1 27  1  0
  1 28  1  0
  3 29  1  0
  3 30  1  0
  5 31  1  0
  8 32  1  0
  9 33  1  0
 10 34  1  0
 12 35  1  0
 20 36  1  0
 21 37  1  0
 22 38  1  0
 23 39  1  0
 25 40  1  0
M  END
>  <Energy>  (864) 
479.64686472363235

>  <compound_id>  (864) 
16016

>  <target_id>  (864) 
1

>  <reference_id>  (864) 
48

>  <inspiration_ids>  (864) 
[52, 48]

>  <energy_score>  (864) 
425.61748082228024

>  <distance_score>  (864) 
6.920509128818421

>  <path>  (864) 
/opt/xchem-fragalysis-2/maxwin/BulkDock/SCRATCH/511017/C16016-P48/C16016-P48.minimised.mol

>  <scratch_subdir>  (864) 
/opt/xchem-fragalysis-2/maxwin/BulkDock/SCRATCH/511017/C16016-P48

>  <fragmenstein_runtime>  (864) 
9.538153409957886

>  <fragmenstein_outcome>  (864) 
too moved

>  <fragmenstein_mode>  (864) 
expansion

>  <fragmenstein_error>  (864) 


$$$$
C16017-P52
     RDKit          3D

 51 54  0  0  0  0  0  0  0  0999 V2000
   -8.6292  -23.8013   15.9808 O   0  0  0  0  0  0  0  0  0  0  0  0
   -9.1969  -22.7765   15.6843 C   0  0  0  0  0  0  0  0  0  0  0  0
   -9.4260  -21.3052   16.6830 N   0  0  0  0  0  0  0  0  0  0  0  0
   -8.9768  -20.9103   18.5783 C   0  0  0  0  0  0  0  0  0  0  0  0
  -10.1207  -21.3625   20.3181 C   0  0  0  0  0  0  0  0  0  0  0  0
  -11.0855  -21.9293   20.0158 O   0  0  0  0  0  0  0  0  0  0  0  0
   -9.7738  -21.1483   21.7921 N   0  0  0  0  0  0  0  0  0  0  0  0
  -10.4197  -21.6341   23.0620 C   0  0  0  0  0  0  0  0  0  0  0  0
  -11.7562  -21.3305   23.9164 C   0  0  0  0  0  0  0  0  0  0  0  0
  -11.9022  -22.0698   25.3479 C   0  0  0  0  0  0  0  0  0  0  0  0
  -11.5577  -21.5438   26.5240 N   0  0  0  0  0  0  0  0  0  0  0  0
  -11.6526  -22.5209   27.4748 C   0  0  0  0  0  0  0  0  0  0  0  0
  -11.3096  -22.4990   28.8357 C   0  0  0  0  0  0  0  0  0  0  0  0
  -11.4764  -23.6657   29.5904 C   0  0  0  0  0  0  0  0  0  0  0  0
  -11.9954  -24.8196   28.9977 C   0  0  0  0  0  0  0  0  0  0  0  0
  -12.3854  -24.8402   27.6473 C   0  0  0  0  0  0  0  0  0  0  0  0
  -12.1904  -23.6654   26.9126 C   0  0  0  0  0  0  0  0  0  0  0  0
  -12.4955  -23.2854   25.6168 N   0  0  0  0  0  0  0  0  0  0  0  0
   -8.1894  -19.3256   18.5797 C   0  0  0  0  0  0  0  0  0  0  0  0
   -7.1318  -18.8782   19.4311 C   0  0  0  0  0  0  0  0  0  0  0  0
   -6.6316  -17.5569   19.4463 C   0  0  0  0  0  0  0  0  0  0  0  0
   -7.1718  -16.5889   18.6218 C   0  0  0  0  0  0  0  0  0  0  0  0
   -8.1864  -16.9615   17.7601 C   0  0  0  0  0  0  0  0  0  0  0  0
   -8.6391  -18.3046   17.7353 C   0  0  0  0  0  0  0  0  0  0  0  0
   -9.8429  -22.9443   14.3009 C   0  0  0  0  0  0  0  0  0  0  0  0
   -9.9547  -24.3608   13.9907 C   0  0  0  0  0  0  0  0  0  0  0  0
  -10.0801  -24.9172   12.7178 C   0  0  0  0  0  0  0  0  0  0  0  0
  -10.0723  -24.0319   11.6950 C   0  0  0  0  0  0  0  0  0  0  0  0
  -10.1155  -22.7153   11.9317 N   0  0  0  0  0  0  0  0  0  0  0  0
  -10.1479  -22.2163   13.2119 C   0  0  0  0  0  0  0  0  0  0  0  0
   -9.8620  -20.5934   16.1396 H   0  0  0  0  0  0  0  0  0  0  0  0
   -8.0840  -21.3216   18.2677 H   0  0  0  0  0  0  0  0  0  0  0  0
   -8.9768  -20.5781   21.8282 H   0  0  0  0  0  0  0  0  0  0  0  0
  -10.9868  -22.3969   22.5378 H   0  0  0  0  0  0  0  0  0  0  0  0
   -9.6753  -22.2283   23.5777 H   0  0  0  0  0  0  0  0  0  0  0  0
  -12.6427  -21.6220   23.3497 H   0  0  0  0  0  0  0  0  0  0  0  0
  -11.8073  -20.2669   24.1270 H   0  0  0  0  0  0  0  0  0  0  0  0
  -10.9130  -21.5889   29.2726 H   0  0  0  0  0  0  0  0  0  0  0  0
  -11.1998  -23.6647   30.6426 H   0  0  0  0  0  0  0  0  0  0  0  0
  -12.1112  -25.7185   29.5985 H   0  0  0  0  0  0  0  0  0  0  0  0
  -12.8135  -25.7305   27.2006 H   0  0  0  0  0  0  0  0  0  0  0  0
  -13.0913  -23.8010   24.9923 H   0  0  0  0  0  0  0  0  0  0  0  0
   -6.6578  -19.4802   20.1934 H   0  0  0  0  0  0  0  0  0  0  0  0
   -5.8284  -17.2967   20.1319 H   0  0  0  0  0  0  0  0  0  0  0  0
   -6.8040  -15.5684   18.6438 H   0  0  0  0  0  0  0  0  0  0  0  0
   -8.6387  -16.2175   17.1130 H   0  0  0  0  0  0  0  0  0  0  0  0
   -9.5319  -18.5412   17.2102 H   0  0  0  0  0  0  0  0  0  0  0  0
   -9.8515  -25.0948   14.7937 H   0  0  0  0  0  0  0  0  0  0  0  0
  -10.0867  -25.9871   12.5620 H   0  0  0  0  0  0  0  0  0  0  0  0
  -10.0655  -24.3319   10.6547 H   0  0  0  0  0  0  0  0  0  0  0  0
  -10.4049  -21.1713   13.2552 H   0  0  0  0  0  0  0  0  0  0  0  0
  1  2  2  0
  2  3  1  0
  3  4  1  0
  4  5  1  0
  5  6  2  0
  5  7  1  0
  7  8  1  0
  8  9  1  0
  9 10  1  0
 10 11  2  0
 11 12  1  0
 12 13  2  0
 13 14  1  0
 14 15  2  0
 15 16  1  0
 16 17  2  0
 17 18  1  0
  4 19  1  0
 19 20  2  0
 20 21  1  0
 21 22  2  0
 22 23  1  0
 23 24  2  0
  2 25  1  0
 25 26  2  0
 26 27  1  0
 27 28  2  0
 28 29  1  0
 29 30  2  0
 18 10  1  0
 24 19  1  0
 30 25  1  0
 17 12  1  0
  3 31  1  0
  4 32  1  0
  7 33  1  0
  8 34  1  0
  8 35  1  0
  9 36  1  0
  9 37  1  0
 13 38  1  0
 14 39  1  0
 15 40  1  0
 16 41  1  0
 18 42  1  0
 20 43  1  0
 21 44  1  0
 22 45  1  0
 23 46  1  0
 24 47  1  0
 26 48  1  0
 27 49  1  0
 28 50  1  0
 30 51  1  0
M  END
>  <Energy>  (865) 
435.5281359373692

>  <compound_id>  (865) 
16017

>  <target_id>  (865) 
1

>  <reference_id>  (865) 
52

>  <inspiration_ids>  (865) 
[52, 48]

>  <energy_score>  (865) 
330.9211230603796

>  <distance_score>  (865) 
5.829658192392401

>  <path>  (865) 
/opt/xchem-fragalysis-2/maxwin/BulkDock/SCRATCH/511017/C16017-P52/C16017-P52.minimised.mol

>  <scratch_subdir>  (865) 
/opt/xchem-fragalysis-2/maxwin/BulkDock/SCRATCH/511017/C16017-P52

>  <fragmenstein_runtime>  (865) 
23.440466165542603

>  <fragmenstein_outcome>  (865) 
too moved

>  <fragmenstein_mode>  (865) 
expansion

>  <fragmenstein_error>  (865) 


$$$$
C16017-P48
     RDKit          3D

 51 54  0  0  0  0  0  0  0  0999 V2000
  -16.0931  -26.0698   17.6983 O   0  0  0  0  0  0  0  0  0  0  0  0
  -15.3101  -25.2462   17.3244 C   0  0  0  0  0  0  0  0  0  0  0  0
  -14.1146  -24.7291   17.9494 N   0  0  0  0  0  0  0  0  0  0  0  0
  -13.4092  -25.1329   19.2213 C   0  0  0  0  0  0  0  0  0  0  0  0
  -12.1877  -24.2249   20.4334 C   0  0  0  0  0  0  0  0  0  0  0  0
  -11.1592  -24.8277   20.4990 O   0  0  0  0  0  0  0  0  0  0  0  0
  -12.6096  -22.9361   21.2799 N   0  0  0  0  0  0  0  0  0  0  0  0
  -11.8918  -22.1907   22.4571 C   0  0  0  0  0  0  0  0  0  0  0  0
  -12.7892  -22.0541   23.8489 C   0  0  0  0  0  0  0  0  0  0  0  0
  -12.7015  -22.9382   25.1452 C   0  0  0  0  0  0  0  0  0  0  0  0
  -13.2163  -24.1436   25.4076 N   0  0  0  0  0  0  0  0  0  0  0  0
  -12.5910  -24.5805   26.5703 C   0  0  0  0  0  0  0  0  0  0  0  0
  -12.5464  -25.8465   27.1839 C   0  0  0  0  0  0  0  0  0  0  0  0
  -11.9412  -25.9723   28.4444 C   0  0  0  0  0  0  0  0  0  0  0  0
  -11.3964  -24.8596   29.0819 C   0  0  0  0  0  0  0  0  0  0  0  0
  -11.4067  -23.6025   28.4661 C   0  0  0  0  0  0  0  0  0  0  0  0
  -11.9866  -23.5182   27.2032 C   0  0  0  0  0  0  0  0  0  0  0  0
  -12.2152  -22.4693   26.3571 N   0  0  0  0  0  0  0  0  0  0  0  0
  -12.8488  -26.5491   18.4553 C   0  0  0  0  0  0  0  0  0  0  0  0
  -11.9563  -26.6127   17.3638 C   0  0  0  0  0  0  0  0  0  0  0  0
  -11.7162  -27.8002   16.6520 C   0  0  0  0  0  0  0  0  0  0  0  0
  -12.4200  -28.9550   16.9559 C   0  0  0  0  0  0  0  0  0  0  0  0
  -13.4002  -28.9030   17.9328 C   0  0  0  0  0  0  0  0  0  0  0  0
  -13.6261  -27.7123   18.6362 C   0  0  0  0  0  0  0  0  0  0  0  0
  -15.5247  -24.7245   15.9395 C   0  0  0  0  0  0  0  0  0  0  0  0
  -14.5368  -24.9860   14.9679 C   0  0  0  0  0  0  0  0  0  0  0  0
  -14.7430  -24.6515   13.6286 C   0  0  0  0  0  0  0  0  0  0  0  0
  -15.9562  -24.0859   13.2904 C   0  0  0  0  0  0  0  0  0  0  0  0
  -16.9461  -23.8603   14.1862 N   0  0  0  0  0  0  0  0  0  0  0  0
  -16.7261  -24.2231   15.4834 C   0  0  0  0  0  0  0  0  0  0  0  0
  -13.6588  -24.1079   17.3158 H   0  0  0  0  0  0  0  0  0  0  0  0
  -14.1142  -25.6375   19.8531 H   0  0  0  0  0  0  0  0  0  0  0  0
  -13.4605  -22.6147   20.9616 H   0  0  0  0  0  0  0  0  0  0  0  0
  -10.8892  -22.4476   22.7327 H   0  0  0  0  0  0  0  0  0  0  0  0
  -11.7887  -21.1755   22.0637 H   0  0  0  0  0  0  0  0  0  0  0  0
  -12.5416  -21.0481   24.2071 H   0  0  0  0  0  0  0  0  0  0  0  0
  -13.8466  -22.0660   23.5911 H   0  0  0  0  0  0  0  0  0  0  0  0
  -13.0068  -26.7013   26.7021 H   0  0  0  0  0  0  0  0  0  0  0  0
  -11.9239  -26.9391   28.9418 H   0  0  0  0  0  0  0  0  0  0  0  0
  -10.9783  -24.9647   30.0804 H   0  0  0  0  0  0  0  0  0  0  0  0
  -11.0528  -22.7114   28.9649 H   0  0  0  0  0  0  0  0  0  0  0  0
  -12.0044  -21.5067   26.5610 H   0  0  0  0  0  0  0  0  0  0  0  0
  -11.4623  -25.7487   16.9586 H   0  0  0  0  0  0  0  0  0  0  0  0
  -10.9941  -27.8043   15.8383 H   0  0  0  0  0  0  0  0  0  0  0  0
  -12.2470  -29.8690   16.3954 H   0  0  0  0  0  0  0  0  0  0  0  0
  -14.0298  -29.7692   18.1184 H   0  0  0  0  0  0  0  0  0  0  0  0
  -14.5035  -27.6764   19.2746 H   0  0  0  0  0  0  0  0  0  0  0  0
  -13.6220  -25.5050   15.2418 H   0  0  0  0  0  0  0  0  0  0  0  0
  -13.9905  -24.8519   12.8742 H   0  0  0  0  0  0  0  0  0  0  0  0
  -16.1861  -23.8074   12.2659 H   0  0  0  0  0  0  0  0  0  0  0  0
  -17.5709  -24.0855   16.1533 H   0  0  0  0  0  0  0  0  0  0  0  0
  1  2  2  0
  2  3  1  0
  3  4  1  0
  4  5  1  0
  5  6  2  0
  5  7  1  0
  7  8  1  0
  8  9  1  0
  9 10  1  0
 10 11  2  0
 11 12  1  0
 12 13  2  0
 13 14  1  0
 14 15  2  0
 15 16  1  0
 16 17  2  0
 17 18  1  0
  4 19  1  0
 19 20  2  0
 20 21  1  0
 21 22  2  0
 22 23  1  0
 23 24  2  0
  2 25  1  0
 25 26  2  0
 26 27  1  0
 27 28  2  0
 28 29  1  0
 29 30  2  0
 18 10  1  0
 24 19  1  0
 30 25  1  0
 17 12  1  0
  3 31  1  0
  4 32  1  0
  7 33  1  0
  8 34  1  0
  8 35  1  0
  9 36  1  0
  9 37  1  0
 13 38  1  0
 14 39  1  0
 15 40  1  0
 16 41  1  0
 18 42  1  0
 20 43  1  0
 21 44  1  0
 22 45  1  0
 23 46  1  0
 24 47  1  0
 26 48  1  0
 27 49  1  0
 28 50  1  0
 30 51  1  0
M  END
>  <Energy>  (866) 
226.38530022552581

>  <compound_id>  (866) 
16017

>  <target_id>  (866) 
1

>  <reference_id>  (866) 
48

>  <inspiration_ids>  (866) 
[52, 48]

>  <energy_score>  (866) 
121.77828734854592

>  <distance_score>  (866) 
6.620790985094899

>  <path>  (866) 
/opt/xchem-fragalysis-2/maxwin/BulkDock/SCRATCH/511017/C16017-P48/C16017-P48.minimised.mol

>  <scratch_subdir>  (866) 
/opt/xchem-fragalysis-2/maxwin/BulkDock/SCRATCH/511017/C16017-P48

>  <fragmenstein_runtime>  (866) 
15.435342073440552

>  <fragmenstein_outcome>  (866) 
too moved

>  <fragmenstein_mode>  (866) 
expansion

>  <fragmenstein_error>  (866) 


$$$$
C16018-P52
     RDKit          3D

 28 30  0  0  0  0  0  0  0  0999 V2000
   -9.8818  -26.5479   21.3144 O   0  0  0  0  0  0  0  0  0  0  0  0
  -10.8159  -26.0675   21.8672 C   0  0  0  0  0  0  0  0  0  0  0  0
  -12.4974  -25.3351   20.8055 N   0  0  0  0  0  0  0  0  0  0  0  0
  -12.8826  -25.4452   19.0987 C   0  0  0  0  0  0  0  0  0  0  0  0
  -12.4109  -26.6261   18.2882 C   0  0  0  0  0  0  0  0  0  0  0  0
  -12.7828  -27.0056   16.9717 C   0  0  0  0  0  0  0  0  0  0  0  0
  -13.7272  -26.2595   16.3406 C   0  0  0  0  0  0  0  0  0  0  0  0
  -14.2574  -25.2020   16.9503 N   0  0  0  0  0  0  0  0  0  0  0  0
  -13.8041  -24.8829   18.2370 C   0  0  0  0  0  0  0  0  0  0  0  0
  -11.2862  -25.9186   24.0863 C   0  0  0  0  0  0  0  0  0  0  0  0
  -10.5410  -25.0768   25.1918 C   0  0  0  0  0  0  0  0  0  0  0  0
  -10.9565  -24.2333   26.2686 C   0  0  0  0  0  0  0  0  0  0  0  0
  -10.1250  -22.5634   26.5808 Br  0  0  0  0  0  0  0  0  0  0  0  0
  -12.0807  -24.5386   26.9637 C   0  0  0  0  0  0  0  0  0  0  0  0
  -12.8952  -25.4042   26.2641 C   0  0  0  0  0  0  0  0  0  0  0  0
  -14.2022  -25.7071   26.5730 N   0  0  0  0  0  0  0  0  0  0  0  0
  -14.7625  -26.2387   25.4650 C   0  0  0  0  0  0  0  0  0  0  0  0
  -13.8711  -26.3980   24.5170 N   0  0  0  0  0  0  0  0  0  0  0  0
  -12.6396  -25.9602   24.9841 C   0  0  0  0  0  0  0  0  0  0  0  0
  -13.2478  -25.0377   21.4663 H   0  0  0  0  0  0  0  0  0  0  0  0
  -11.6475  -27.3150   18.6518 H   0  0  0  0  0  0  0  0  0  0  0  0
  -12.3274  -27.8660   16.4949 H   0  0  0  0  0  0  0  0  0  0  0  0
  -14.0775  -26.4769   15.3393 H   0  0  0  0  0  0  0  0  0  0  0  0
  -14.3990  -24.1027   18.5785 H   0  0  0  0  0  0  0  0  0  0  0  0
   -9.9875  -25.9013   25.7191 H   0  0  0  0  0  0  0  0  0  0  0  0
  -12.4154  -23.9857   27.8328 H   0  0  0  0  0  0  0  0  0  0  0  0
  -14.7025  -25.4047   27.3983 H   0  0  0  0  0  0  0  0  0  0  0  0
  -15.8144  -26.4859   25.3945 H   0  0  0  0  0  0  0  0  0  0  0  0
  1  2  2  0
  2  3  1  0
  3  4  1  0
  4  5  2  0
  5  6  1  0
  6  7  2  0
  7  8  1  0
  8  9  2  0
  2 10  1  0
 10 11  2  0
 11 12  1  0
 12 13  1  0
 12 14  2  0
 14 15  1  0
 15 16  1  0
 16 17  1  0
 17 18  2  0
 18 19  1  0
  9  4  1  0
 19 10  1  0
 19 15  2  0
  3 20  1  0
  5 21  1  0
  6 22  1  0
  7 23  1  0
  9 24  1  0
 11 25  1  0
 14 26  1  0
 16 27  1  0
 17 28  1  0
M  END
>  <Energy>  (867) 
623.40167841198752

>  <compound_id>  (867) 
16018

>  <target_id>  (867) 
1

>  <reference_id>  (867) 
52

>  <inspiration_ids>  (867) 
[52, 48]

>  <energy_score>  (867) 
545.4474718521396

>  <distance_score>  (867) 
8.36818697932829

>  <path>  (867) 
/opt/xchem-fragalysis-2/maxwin/BulkDock/SCRATCH/511017/C16018-P52/C16018-P52.minimised.mol

>  <scratch_subdir>  (867) 
/opt/xchem-fragalysis-2/maxwin/BulkDock/SCRATCH/511017/C16018-P52

>  <fragmenstein_runtime>  (867) 
5.878830432891846

>  <fragmenstein_outcome>  (867) 
too moved

>  <fragmenstein_mode>  (867) 
expansion

>  <fragmenstein_error>  (867) 


$$$$
C16018-P48
     RDKit          3D

 28 30  0  0  0  0  0  0  0  0999 V2000
  -11.0695  -24.7310   20.5148 O   0  0  0  0  0  0  0  0  0  0  0  0
  -12.1836  -24.3249   20.4463 C   0  0  0  0  0  0  0  0  0  0  0  0
  -13.3776  -24.9681   19.4837 N   0  0  0  0  0  0  0  0  0  0  0  0
  -13.3455  -26.0341   18.4807 C   0  0  0  0  0  0  0  0  0  0  0  0
  -12.2771  -26.7251   17.9407 C   0  0  0  0  0  0  0  0  0  0  0  0
  -12.3488  -27.4169   16.7180 C   0  0  0  0  0  0  0  0  0  0  0  0
  -13.5393  -27.4207   16.0271 C   0  0  0  0  0  0  0  0  0  0  0  0
  -14.6354  -26.8051   16.4923 N   0  0  0  0  0  0  0  0  0  0  0  0
  -14.5033  -26.1437   17.6813 C   0  0  0  0  0  0  0  0  0  0  0  0
  -12.3416  -22.7501   21.4669 C   0  0  0  0  0  0  0  0  0  0  0  0
  -11.1520  -21.9288   21.5580 C   0  0  0  0  0  0  0  0  0  0  0  0
  -10.7199  -21.2082   22.7183 C   0  0  0  0  0  0  0  0  0  0  0  0
   -8.8742  -20.7990   23.1782 Br  0  0  0  0  0  0  0  0  0  0  0  0
  -11.5373  -20.8626   23.7466 C   0  0  0  0  0  0  0  0  0  0  0  0
  -12.4443  -21.8407   23.8949 C   0  0  0  0  0  0  0  0  0  0  0  0
  -12.8888  -22.3867   25.0728 N   0  0  0  0  0  0  0  0  0  0  0  0
  -13.9268  -23.1737   24.7623 C   0  0  0  0  0  0  0  0  0  0  0  0
  -13.9628  -23.3033   23.4760 N   0  0  0  0  0  0  0  0  0  0  0  0
  -12.9382  -22.6212   22.8641 C   0  0  0  0  0  0  0  0  0  0  0  0
  -14.1843  -24.5265   19.6624 H   0  0  0  0  0  0  0  0  0  0  0  0
  -11.3207  -26.6708   18.4023 H   0  0  0  0  0  0  0  0  0  0  0  0
  -11.4687  -27.9052   16.3127 H   0  0  0  0  0  0  0  0  0  0  0  0
  -13.6439  -27.9251   15.0722 H   0  0  0  0  0  0  0  0  0  0  0  0
  -15.4153  -25.6148   17.9398 H   0  0  0  0  0  0  0  0  0  0  0  0
  -10.3906  -22.0227   20.7905 H   0  0  0  0  0  0  0  0  0  0  0  0
  -11.2069  -20.2638   24.5590 H   0  0  0  0  0  0  0  0  0  0  0  0
  -12.7231  -22.0051   25.9932 H   0  0  0  0  0  0  0  0  0  0  0  0
  -14.6241  -23.5960   25.4588 H   0  0  0  0  0  0  0  0  0  0  0  0
  1  2  2  0
  2  3  1  0
  3  4  1  0
  4  5  2  0
  5  6  1  0
  6  7  2  0
  7  8  1  0
  8  9  2  0
  2 10  1  0
 10 11  2  0
 11 12  1  0
 12 13  1  0
 12 14  2  0
 14 15  1  0
 15 16  1  0
 16 17  1  0
 17 18  2  0
 18 19  1  0
  9  4  1  0
 19 10  1  0
 19 15  2  0
  3 20  1  0
  5 21  1  0
  6 22  1  0
  7 23  1  0
  9 24  1  0
 11 25  1  0
 14 26  1  0
 16 27  1  0
 17 28  1  0
M  END
>  <Energy>  (868) 
184.3796614129559

>  <compound_id>  (868) 
16018

>  <target_id>  (868) 
1

>  <reference_id>  (868) 
48

>  <inspiration_ids>  (868) 
[52, 48]

>  <energy_score>  (868) 
106.4254548531101

>  <distance_score>  (868) 
9.319041462446078

>  <path>  (868) 
/opt/xchem-fragalysis-2/maxwin/BulkDock/SCRATCH/511017/C16018-P48/C16018-P48.minimised.mol

>  <scratch_subdir>  (868) 
/opt/xchem-fragalysis-2/maxwin/BulkDock/SCRATCH/511017/C16018-P48

>  <fragmenstein_runtime>  (868) 
3.6444551944732666

>  <fragmenstein_outcome>  (868) 
too moved

>  <fragmenstein_mode>  (868) 
expansion

>  <fragmenstein_error>  (868) 


$$$$
C16020-P52
     RDKit          3D

 31 33  0  0  0  0  0  0  0  0999 V2000
  -14.0893  -26.2410   17.8464 C   0  0  0  0  0  0  0  0  0  0  0  0
  -14.3421  -26.7275   19.3585 N   0  0  0  0  0  0  0  0  0  0  0  0
  -14.0036  -25.9063   20.9467 C   0  0  0  0  0  0  0  0  0  0  0  0
  -13.4240  -24.8773   20.9564 O   0  0  0  0  0  0  0  0  0  0  0  0
  -14.6599  -26.4125   22.7786 C   0  0  0  0  0  0  0  0  0  0  0  0
  -16.0966  -26.7918   22.9524 C   0  0  0  0  0  0  0  0  0  0  0  0
  -16.9244  -26.7065   24.1013 C   0  0  0  0  0  0  0  0  0  0  0  0
  -18.7311  -27.2742   23.9735 Br  0  0  0  0  0  0  0  0  0  0  0  0
  -16.4872  -26.1767   25.2915 C   0  0  0  0  0  0  0  0  0  0  0  0
  -15.1512  -25.8460   25.3088 C   0  0  0  0  0  0  0  0  0  0  0  0
  -14.4288  -25.3446   26.3721 N   0  0  0  0  0  0  0  0  0  0  0  0
  -13.1245  -25.4053   26.0369 C   0  0  0  0  0  0  0  0  0  0  0  0
  -13.0022  -25.8355   24.8063 N   0  0  0  0  0  0  0  0  0  0  0  0
  -14.2668  -25.9679   24.2144 C   0  0  0  0  0  0  0  0  0  0  0  0
  -13.2351  -27.8470   18.6967 C   0  0  0  0  0  0  0  0  0  0  0  0
  -13.8657  -28.9821   18.0818 C   0  0  0  0  0  0  0  0  0  0  0  0
  -13.2505  -29.7587   17.0887 C   0  0  0  0  0  0  0  0  0  0  0  0
  -11.9952  -29.3957   16.6551 C   0  0  0  0  0  0  0  0  0  0  0  0
  -11.3402  -28.3343   17.1447 N   0  0  0  0  0  0  0  0  0  0  0  0
  -11.9608  -27.6020   18.1206 C   0  0  0  0  0  0  0  0  0  0  0  0
  -13.2079  -25.6125   17.7388 H   0  0  0  0  0  0  0  0  0  0  0  0
  -14.8795  -25.4834   17.7203 H   0  0  0  0  0  0  0  0  0  0  0  0
  -14.3643  -26.9139   17.0214 H   0  0  0  0  0  0  0  0  0  0  0  0
  -16.6430  -27.1870   22.0921 H   0  0  0  0  0  0  0  0  0  0  0  0
  -17.1288  -26.0747   26.1590 H   0  0  0  0  0  0  0  0  0  0  0  0
  -14.8095  -25.0767   27.2700 H   0  0  0  0  0  0  0  0  0  0  0  0
  -12.3150  -25.1461   26.7068 H   0  0  0  0  0  0  0  0  0  0  0  0
  -14.9098  -29.2033   18.3043 H   0  0  0  0  0  0  0  0  0  0  0  0
  -13.7665  -30.6014   16.6417 H   0  0  0  0  0  0  0  0  0  0  0  0
  -11.4756  -29.9530   15.8816 H   0  0  0  0  0  0  0  0  0  0  0  0
  -11.3982  -26.7063   18.3247 H   0  0  0  0  0  0  0  0  0  0  0  0
  1  2  1  0
  2  3  1  0
  3  4  2  0
  3  5  1  0
  5  6  2  0
  6  7  1  0
  7  8  1  0
  7  9  2  0
  9 10  1  0
 10 11  1  0
 11 12  1  0
 12 13  2  0
 13 14  1  0
  2 15  1  0
 15 16  2  0
 16 17  1  0
 17 18  2  0
 18 19  1  0
 19 20  2  0
 14  5  1  0
 20 15  1  0
 14 10  2  0
  1 21  1  0
  1 22  1  0
  1 23  1  0
  6 24  1  0
  9 25  1  0
 11 26  1  0
 12 27  1  0
 16 28  1  0
 17 29  1  0
 18 30  1  0
 20 31  1  0
M  END
>  <Energy>  (869) 
351.84604638172158

>  <compound_id>  (869) 
16020

>  <target_id>  (869) 
1

>  <reference_id>  (869) 
52

>  <inspiration_ids>  (869) 
[52, 48]

>  <energy_score>  (869) 
262.0677206986479

>  <distance_score>  (869) 
9.708238823915329

>  <path>  (869) 
/opt/xchem-fragalysis-2/maxwin/BulkDock/SCRATCH/511017/C16020-P52/C16020-P52.minimised.mol

>  <scratch_subdir>  (869) 
/opt/xchem-fragalysis-2/maxwin/BulkDock/SCRATCH/511017/C16020-P52

>  <fragmenstein_runtime>  (869) 
5.900453090667725

>  <fragmenstein_outcome>  (869) 
too moved

>  <fragmenstein_mode>  (869) 
expansion

>  <fragmenstein_error>  (869) 


$$$$
C16020-P48
     RDKit          3D

 31 33  0  0  0  0  0  0  0  0999 V2000
  -13.7970  -25.9118   19.8386 C   0  0  0  0  0  0  0  0  0  0  0  0
  -12.6979  -24.6101   19.7867 N   0  0  0  0  0  0  0  0  0  0  0  0
  -12.4910  -23.1249   20.9198 C   0  0  0  0  0  0  0  0  0  0  0  0
  -13.2541  -22.8823   21.8390 O   0  0  0  0  0  0  0  0  0  0  0  0
  -11.1785  -22.0029   20.9745 C   0  0  0  0  0  0  0  0  0  0  0  0
  -10.9634  -22.0313   22.4512 C   0  0  0  0  0  0  0  0  0  0  0  0
  -11.7986  -21.4369   23.4185 C   0  0  0  0  0  0  0  0  0  0  0  0
  -12.6559  -22.4284   24.7442 Br  0  0  0  0  0  0  0  0  0  0  0  0
  -12.1404  -20.1466   23.1996 C   0  0  0  0  0  0  0  0  0  0  0  0
  -11.5042  -19.6833   22.0793 C   0  0  0  0  0  0  0  0  0  0  0  0
  -11.1977  -18.4135   21.6860 N   0  0  0  0  0  0  0  0  0  0  0  0
  -10.1931  -18.5370   20.7837 C   0  0  0  0  0  0  0  0  0  0  0  0
  -10.0123  -19.7906   20.4484 N   0  0  0  0  0  0  0  0  0  0  0  0
  -10.9998  -20.5597   21.0774 C   0  0  0  0  0  0  0  0  0  0  0  0
  -13.6195  -24.7834   18.1965 C   0  0  0  0  0  0  0  0  0  0  0  0
  -12.9282  -25.7661   17.2816 C   0  0  0  0  0  0  0  0  0  0  0  0
  -13.3160  -26.1544   15.9900 C   0  0  0  0  0  0  0  0  0  0  0  0
  -14.4883  -25.6383   15.5272 C   0  0  0  0  0  0  0  0  0  0  0  0
  -15.2732  -24.8871   16.3104 N   0  0  0  0  0  0  0  0  0  0  0  0
  -14.8526  -24.5662   17.5968 C   0  0  0  0  0  0  0  0  0  0  0  0
  -13.7658  -26.3428   20.7943 H   0  0  0  0  0  0  0  0  0  0  0  0
  -14.8294  -25.9547   19.5067 H   0  0  0  0  0  0  0  0  0  0  0  0
  -13.3544  -26.7578   19.2735 H   0  0  0  0  0  0  0  0  0  0  0  0
   -9.8941  -21.8363   22.7105 H   0  0  0  0  0  0  0  0  0  0  0  0
  -12.8252  -19.5565   23.7594 H   0  0  0  0  0  0  0  0  0  0  0  0
  -11.4785  -17.5548   22.1348 H   0  0  0  0  0  0  0  0  0  0  0  0
   -9.6295  -17.6952   20.4043 H   0  0  0  0  0  0  0  0  0  0  0  0
  -11.9919  -26.2183   17.6322 H   0  0  0  0  0  0  0  0  0  0  0  0
  -12.7037  -26.8161   15.3902 H   0  0  0  0  0  0  0  0  0  0  0  0
  -14.8626  -25.8460   14.5308 H   0  0  0  0  0  0  0  0  0  0  0  0
  -15.7255  -24.1652   18.0751 H   0  0  0  0  0  0  0  0  0  0  0  0
  1  2  1  0
  2  3  1  0
  3  4  2  0
  3  5  1  0
  5  6  2  0
  6  7  1  0
  7  8  1  0
  7  9  2  0
  9 10  1  0
 10 11  1  0
 11 12  1  0
 12 13  2  0
 13 14  1  0
  2 15  1  0
 15 16  2  0
 16 17  1  0
 17 18  2  0
 18 19  1  0
 19 20  2  0
 14  5  1  0
 20 15  1  0
 14 10  2  0
  1 21  1  0
  1 22  1  0
  1 23  1  0
  6 24  1  0
  9 25  1  0
 11 26  1  0
 12 27  1  0
 16 28  1  0
 17 29  1  0
 18 30  1  0
 20 31  1  0
M  END
>  <Energy>  (870) 
488.26708820550266

>  <compound_id>  (870) 
16020

>  <target_id>  (870) 
1

>  <reference_id>  (870) 
48

>  <inspiration_ids>  (870) 
[52, 48]

>  <energy_score>  (870) 
398.4887625224269

>  <distance_score>  (870) 
10.07387057520989

>  <path>  (870) 
/opt/xchem-fragalysis-2/maxwin/BulkDock/SCRATCH/511017/C16020-P48/C16020-P48.minimised.mol

>  <scratch_subdir>  (870) 
/opt/xchem-fragalysis-2/maxwin/BulkDock/SCRATCH/511017/C16020-P48

>  <fragmenstein_runtime>  (870) 
3.047041654586792

>  <fragmenstein_outcome>  (870) 
too moved

>  <fragmenstein_mode>  (870) 
expansion

>  <fragmenstein_error>  (870) 


$$$$
C16015-P52
     RDKit          3D

 34 36  0  0  0  0  0  0  0  0999 V2000
   -9.7152  -22.3215   19.9014 C   0  0  0  0  0  0  0  0  0  0  0  0
   -9.5439  -21.1500   20.1757 N   0  0  0  0  0  0  0  0  0  0  0  0
   -9.0589  -21.0362   18.1684 C   0  0  0  0  0  0  0  0  0  0  0  0
   -9.4350  -22.0306   16.4131 C   0  0  0  0  0  0  0  0  0  0  0  0
   -9.1336  -23.3228   15.6902 C   0  0  0  0  0  0  0  0  0  0  0  0
   -9.5479  -23.9649   14.4317 C   0  0  0  0  0  0  0  0  0  0  0  0
  -10.1297  -23.2173   13.4865 C   0  0  0  0  0  0  0  0  0  0  0  0
  -10.3003  -21.9611   13.8038 N   0  0  0  0  0  0  0  0  0  0  0  0
   -9.9418  -21.5279   15.1793 C   0  0  0  0  0  0  0  0  0  0  0  0
  -10.7033  -20.6658   20.9202 C   0  0  0  0  0  0  0  0  0  0  0  0
  -11.6793  -20.1655   20.5403 O   0  0  0  0  0  0  0  0  0  0  0  0
  -10.8056  -20.9367   22.4794 C   0  0  0  0  0  0  0  0  0  0  0  0
  -12.0209  -20.8937   23.0611 N   0  0  0  0  0  0  0  0  0  0  0  0
  -12.2310  -21.9343   23.9278 C   0  0  0  0  0  0  0  0  0  0  0  0
  -13.3368  -22.4929   24.6029 C   0  0  0  0  0  0  0  0  0  0  0  0
  -13.1684  -23.5016   25.5852 C   0  0  0  0  0  0  0  0  0  0  0  0
  -11.9053  -23.9365   25.9335 C   0  0  0  0  0  0  0  0  0  0  0  0
  -11.6653  -25.1933   27.3145 Br  0  0  0  0  0  0  0  0  0  0  0  0
  -10.8307  -23.5167   25.1598 C   0  0  0  0  0  0  0  0  0  0  0  0
  -11.0452  -22.5696   24.0882 C   0  0  0  0  0  0  0  0  0  0  0  0
  -10.1601  -21.9210   23.1765 N   0  0  0  0  0  0  0  0  0  0  0  0
  -10.8172  -22.2119   20.1068 H   0  0  0  0  0  0  0  0  0  0  0  0
   -9.2501  -22.2518   20.9117 H   0  0  0  0  0  0  0  0  0  0  0  0
   -9.8607  -23.2334   20.4115 H   0  0  0  0  0  0  0  0  0  0  0  0
   -8.0199  -20.7449   18.0273 H   0  0  0  0  0  0  0  0  0  0  0  0
   -9.4912  -20.0993   17.8565 H   0  0  0  0  0  0  0  0  0  0  0  0
   -8.3680  -23.9928   16.0382 H   0  0  0  0  0  0  0  0  0  0  0  0
   -9.2794  -24.9953   14.2309 H   0  0  0  0  0  0  0  0  0  0  0  0
  -10.4145  -23.5593   12.5065 H   0  0  0  0  0  0  0  0  0  0  0  0
  -10.1737  -20.4736   15.2082 H   0  0  0  0  0  0  0  0  0  0  0  0
  -14.3307  -22.1121   24.4077 H   0  0  0  0  0  0  0  0  0  0  0  0
  -14.0462  -23.9289   26.0591 H   0  0  0  0  0  0  0  0  0  0  0  0
   -9.8309  -23.8605   25.3294 H   0  0  0  0  0  0  0  0  0  0  0  0
   -9.2604  -22.2990   22.9233 H   0  0  0  0  0  0  0  0  0  0  0  0
  1  2  1  0
  2  3  1  0
  3  4  1  0
  4  5  2  0
  5  6  1  0
  6  7  2  0
  7  8  1  0
  8  9  2  0
  2 10  1  0
 10 11  2  0
 10 12  1  0
 12 13  2  0
 13 14  1  0
 14 15  2  0
 15 16  1  0
 16 17  2  0
 17 18  1  0
 17 19  1  0
 19 20  2  0
 20 21  1  0
  9  4  1  0
 21 12  1  0
 20 14  1  0
  1 22  1  0
  1 23  1  0
  1 24  1  0
  3 25  1  0
  3 26  1  0
  5 27  1  0
  6 28  1  0
  7 29  1  0
  9 30  1  0
 15 31  1  0
 16 32  1  0
 19 33  1  0
 21 34  1  0
M  END
>  <Energy>  (871) 
534.61708055565839

>  <compound_id>  (871) 
16015

>  <target_id>  (871) 
1

>  <reference_id>  (871) 
52

>  <inspiration_ids>  (871) 
[52, 48]

>  <energy_score>  (871) 
488.37754335899695

>  <distance_score>  (871) 
8.070171940651191

>  <path>  (871) 
/opt/xchem-fragalysis-2/maxwin/BulkDock/SCRATCH/511017/C16015-P52/C16015-P52.minimised.mol

>  <scratch_subdir>  (871) 
/opt/xchem-fragalysis-2/maxwin/BulkDock/SCRATCH/511017/C16015-P52

>  <fragmenstein_runtime>  (871) 
7.521291494369507

>  <fragmenstein_outcome>  (871) 
too moved

>  <fragmenstein_mode>  (871) 
expansion

>  <fragmenstein_error>  (871) 


$$$$
C16015-P48
     RDKit          3D

 34 36  0  0  0  0  0  0  0  0999 V2000
  -14.2773  -25.7681   19.4733 C   0  0  0  0  0  0  0  0  0  0  0  0
  -12.9703  -25.0781   19.8924 N   0  0  0  0  0  0  0  0  0  0  0  0
  -12.8451  -25.7243   18.1645 C   0  0  0  0  0  0  0  0  0  0  0  0
  -13.3869  -26.8649   17.2344 C   0  0  0  0  0  0  0  0  0  0  0  0
  -13.0124  -28.2007   17.3419 C   0  0  0  0  0  0  0  0  0  0  0  0
  -13.2926  -29.0818   16.2922 C   0  0  0  0  0  0  0  0  0  0  0  0
  -13.9345  -28.6059   15.1573 C   0  0  0  0  0  0  0  0  0  0  0  0
  -14.3211  -27.3279   15.0075 N   0  0  0  0  0  0  0  0  0  0  0  0
  -14.0327  -26.4952   16.0326 C   0  0  0  0  0  0  0  0  0  0  0  0
  -12.7094  -23.3557   20.5826 C   0  0  0  0  0  0  0  0  0  0  0  0
  -12.5015  -22.4192   19.8602 O   0  0  0  0  0  0  0  0  0  0  0  0
  -12.8681  -22.7614   22.3274 C   0  0  0  0  0  0  0  0  0  0  0  0
  -14.0111  -22.8983   23.0463 N   0  0  0  0  0  0  0  0  0  0  0  0
  -13.6804  -23.2396   24.2993 C   0  0  0  0  0  0  0  0  0  0  0  0
  -14.0742  -24.3573   25.0680 C   0  0  0  0  0  0  0  0  0  0  0  0
  -13.2082  -24.7732   26.0913 C   0  0  0  0  0  0  0  0  0  0  0  0
  -12.3255  -23.8552   26.6155 C   0  0  0  0  0  0  0  0  0  0  0  0
  -11.3369  -24.3094   28.1513 Br  0  0  0  0  0  0  0  0  0  0  0  0
  -12.1566  -22.6220   25.9842 C   0  0  0  0  0  0  0  0  0  0  0  0
  -12.5699  -22.5094   24.6273 C   0  0  0  0  0  0  0  0  0  0  0  0
  -12.0582  -22.0844   23.3263 N   0  0  0  0  0  0  0  0  0  0  0  0
  -13.9855  -26.8325   19.3882 H   0  0  0  0  0  0  0  0  0  0  0  0
  -14.7849  -25.3510   18.5822 H   0  0  0  0  0  0  0  0  0  0  0  0
  -15.0878  -26.1750   20.0724 H   0  0  0  0  0  0  0  0  0  0  0  0
  -13.2430  -24.8759   17.5634 H   0  0  0  0  0  0  0  0  0  0  0  0
  -11.7848  -26.0094   18.1000 H   0  0  0  0  0  0  0  0  0  0  0  0
  -12.4622  -28.5529   18.2090 H   0  0  0  0  0  0  0  0  0  0  0  0
  -12.9990  -30.1242   16.3525 H   0  0  0  0  0  0  0  0  0  0  0  0
  -14.1600  -29.2625   14.3218 H   0  0  0  0  0  0  0  0  0  0  0  0
  -14.3201  -25.4636   15.8348 H   0  0  0  0  0  0  0  0  0  0  0  0
  -14.8718  -25.0041   24.7217 H   0  0  0  0  0  0  0  0  0  0  0  0
  -13.3070  -25.7646   26.5209 H   0  0  0  0  0  0  0  0  0  0  0  0
  -11.6590  -21.8290   26.5272 H   0  0  0  0  0  0  0  0  0  0  0  0
  -11.1225  -21.7472   23.1453 H   0  0  0  0  0  0  0  0  0  0  0  0
  1  2  1  0
  2  3  1  0
  3  4  1  0
  4  5  2  0
  5  6  1  0
  6  7  2  0
  7  8  1  0
  8  9  2  0
  2 10  1  0
 10 11  2  0
 10 12  1  0
 12 13  2  0
 13 14  1  0
 14 15  2  0
 15 16  1  0
 16 17  2  0
 17 18  1  0
 17 19  1  0
 19 20  2  0
 20 21  1  0
  9  4  1  0
 21 12  1  0
 20 14  1  0
  1 22  1  0
  1 23  1  0
  1 24  1  0
  3 25  1  0
  3 26  1  0
  5 27  1  0
  6 28  1  0
  7 29  1  0
  9 30  1  0
 15 31  1  0
 16 32  1  0
 19 33  1  0
 21 34  1  0
M  END
>  <Energy>  (872) 
423.27951338760994

>  <compound_id>  (872) 
16015

>  <target_id>  (872) 
1

>  <reference_id>  (872) 
48

>  <inspiration_ids>  (872) 
[52, 48]

>  <energy_score>  (872) 
377.0399761909509

>  <distance_score>  (872) 
8.238220587949348

>  <path>  (872) 
/opt/xchem-fragalysis-2/maxwin/BulkDock/SCRATCH/511017/C16015-P48/C16015-P48.minimised.mol

>  <scratch_subdir>  (872) 
/opt/xchem-fragalysis-2/maxwin/BulkDock/SCRATCH/511017/C16015-P48

>  <fragmenstein_runtime>  (872) 
6.605950117111206

>  <fragmenstein_outcome>  (872) 
too moved

>  <fragmenstein_mode>  (872) 
expansion

>  <fragmenstein_error>  (872) 


$$$$
C16021-P52
     RDKit          3D

 35 37  0  0  0  0  0  0  0  0999 V2000
  -13.6667  -23.8031   25.6113 O   0  0  0  0  0  0  0  0  0  0  0  0
  -13.6126  -24.9460   25.9449 C   0  0  0  0  0  0  0  0  0  0  0  0
  -14.1979  -26.1220   25.3560 N   0  0  0  0  0  0  0  0  0  0  0  0
  -15.1187  -26.2734   24.2272 C   0  0  0  0  0  0  0  0  0  0  0  0
  -14.5580  -26.4370   22.6834 C   0  0  0  0  0  0  0  0  0  0  0  0
  -13.9693  -25.8875   20.9737 O   0  0  0  0  0  0  0  0  0  0  0  0
  -14.0749  -26.7102   19.4191 C   0  0  0  0  0  0  0  0  0  0  0  0
  -13.1106  -26.5737   18.4109 C   0  0  0  0  0  0  0  0  0  0  0  0
  -13.3397  -26.9291   17.0625 C   0  0  0  0  0  0  0  0  0  0  0  0
  -14.5700  -27.4159   16.6940 C   0  0  0  0  0  0  0  0  0  0  0  0
  -15.5566  -27.6049   17.5813 N   0  0  0  0  0  0  0  0  0  0  0  0
  -15.3028  -27.2533   18.8823 C   0  0  0  0  0  0  0  0  0  0  0  0
  -12.8789  -25.1791   27.2865 C   0  0  0  0  0  0  0  0  0  0  0  0
  -13.0235  -26.3529   28.0672 C   0  0  0  0  0  0  0  0  0  0  0  0
  -12.4671  -26.4768   29.3498 C   0  0  0  0  0  0  0  0  0  0  0  0
  -12.8235  -28.0529   30.3414 Br  0  0  0  0  0  0  0  0  0  0  0  0
  -11.7360  -25.4547   29.9455 C   0  0  0  0  0  0  0  0  0  0  0  0
  -11.6423  -24.2782   29.2091 C   0  0  0  0  0  0  0  0  0  0  0  0
  -11.1005  -23.0597   29.5438 N   0  0  0  0  0  0  0  0  0  0  0  0
  -11.2693  -22.2236   28.4850 C   0  0  0  0  0  0  0  0  0  0  0  0
  -11.8810  -22.8293   27.4962 N   0  0  0  0  0  0  0  0  0  0  0  0
  -12.1633  -24.1126   27.9186 C   0  0  0  0  0  0  0  0  0  0  0  0
  -14.0135  -26.9116   25.9486 H   0  0  0  0  0  0  0  0  0  0  0  0
  -15.6597  -27.2018   24.4536 H   0  0  0  0  0  0  0  0  0  0  0  0
  -15.8771  -25.4981   24.3588 H   0  0  0  0  0  0  0  0  0  0  0  0
  -15.6147  -26.4839   22.4137 H   0  0  0  0  0  0  0  0  0  0  0  0
  -13.9813  -25.5935   23.0178 H   0  0  0  0  0  0  0  0  0  0  0  0
  -12.0941  -26.3166   18.5801 H   0  0  0  0  0  0  0  0  0  0  0  0
  -12.5448  -26.8301   16.3296 H   0  0  0  0  0  0  0  0  0  0  0  0
  -14.7911  -27.6945   15.6689 H   0  0  0  0  0  0  0  0  0  0  0  0
  -16.1755  -27.4528   19.4990 H   0  0  0  0  0  0  0  0  0  0  0  0
  -13.6281  -27.1849   27.7252 H   0  0  0  0  0  0  0  0  0  0  0  0
  -11.3138  -25.5378   30.9412 H   0  0  0  0  0  0  0  0  0  0  0  0
  -10.6700  -22.8186   30.4259 H   0  0  0  0  0  0  0  0  0  0  0  0
  -10.9273  -21.1957   28.4873 H   0  0  0  0  0  0  0  0  0  0  0  0
  1  2  2  0
  2  3  1  0
  3  4  1  0
  4  5  1  0
  5  6  1  0
  6  7  1  0
  7  8  2  0
  8  9  1  0
  9 10  2  0
 10 11  1  0
 11 12  2  0
  2 13  1  0
 13 14  2  0
 14 15  1  0
 15 16  1  0
 15 17  2  0
 17 18  1  0
 18 19  1  0
 19 20  1  0
 20 21  2  0
 21 22  1  0
 12  7  1  0
 22 13  1  0
 22 18  2  0
  3 23  1  0
  4 24  1  0
  4 25  1  0
  5 26  1  0
  5 27  1  0
  8 28  1  0
  9 29  1  0
 10 30  1  0
 12 31  1  0
 14 32  1  0
 17 33  1  0
 19 34  1  0
 20 35  1  0
M  END
>  <Energy>  (873) 
289.65374963109588

>  <compound_id>  (873) 
16021

>  <target_id>  (873) 
1

>  <reference_id>  (873) 
52

>  <inspiration_ids>  (873) 
[52, 48]

>  <energy_score>  (873) 
208.4128935047297

>  <distance_score>  (873) 
7.263717945160534

>  <path>  (873) 
/opt/xchem-fragalysis-2/maxwin/BulkDock/SCRATCH/511017/C16021-P52/C16021-P52.minimised.mol

>  <scratch_subdir>  (873) 
/opt/xchem-fragalysis-2/maxwin/BulkDock/SCRATCH/511017/C16021-P52

>  <fragmenstein_runtime>  (873) 
8.649970293045044

>  <fragmenstein_outcome>  (873) 
too moved

>  <fragmenstein_mode>  (873) 
expansion

>  <fragmenstein_error>  (873) 


$$$$
C16021-P48
     RDKit          3D

 35 37  0  0  0  0  0  0  0  0999 V2000
  -16.5843  -25.1740   24.1727 O   0  0  0  0  0  0  0  0  0  0  0  0
  -16.6050  -26.3697   24.1093 C   0  0  0  0  0  0  0  0  0  0  0  0
  -17.0362  -27.2568   23.0353 N   0  0  0  0  0  0  0  0  0  0  0  0
  -17.6774  -26.9599   21.7186 C   0  0  0  0  0  0  0  0  0  0  0  0
  -16.8989  -27.3892   20.4242 C   0  0  0  0  0  0  0  0  0  0  0  0
  -17.4633  -26.8679   19.1963 O   0  0  0  0  0  0  0  0  0  0  0  0
  -16.6645  -26.8201   18.0643 C   0  0  0  0  0  0  0  0  0  0  0  0
  -15.4649  -27.5010   17.8607 C   0  0  0  0  0  0  0  0  0  0  0  0
  -14.7517  -27.3326   16.6623 C   0  0  0  0  0  0  0  0  0  0  0  0
  -15.2643  -26.4914   15.6875 C   0  0  0  0  0  0  0  0  0  0  0  0
  -16.4252  -25.8247   15.8318 N   0  0  0  0  0  0  0  0  0  0  0  0
  -17.0917  -26.0083   17.0083 C   0  0  0  0  0  0  0  0  0  0  0  0
  -16.1303  -27.0386   25.3848 C   0  0  0  0  0  0  0  0  0  0  0  0
  -17.0796  -27.6828   26.1970 C   0  0  0  0  0  0  0  0  0  0  0  0
  -16.7563  -28.1280   27.4872 C   0  0  0  0  0  0  0  0  0  0  0  0
  -18.0973  -28.9763   28.5229 Br  0  0  0  0  0  0  0  0  0  0  0  0
  -15.4875  -27.9587   28.0436 C   0  0  0  0  0  0  0  0  0  0  0  0
  -14.5489  -27.3185   27.2394 C   0  0  0  0  0  0  0  0  0  0  0  0
  -13.2538  -26.9401   27.5129 N   0  0  0  0  0  0  0  0  0  0  0  0
  -12.7914  -26.2571   26.4303 C   0  0  0  0  0  0  0  0  0  0  0  0
  -13.6798  -26.2359   25.4588 N   0  0  0  0  0  0  0  0  0  0  0  0
  -14.8237  -26.8507   25.9410 C   0  0  0  0  0  0  0  0  0  0  0  0
  -16.9925  -28.2143   23.3592 H   0  0  0  0  0  0  0  0  0  0  0  0
  -18.6487  -27.4666   21.7263 H   0  0  0  0  0  0  0  0  0  0  0  0
  -17.8908  -25.8902   21.6876 H   0  0  0  0  0  0  0  0  0  0  0  0
  -16.8715  -28.4831   20.3660 H   0  0  0  0  0  0  0  0  0  0  0  0
  -15.8865  -27.0168   20.4918 H   0  0  0  0  0  0  0  0  0  0  0  0
  -15.0612  -28.1702   18.6118 H   0  0  0  0  0  0  0  0  0  0  0  0
  -13.8138  -27.8525   16.4978 H   0  0  0  0  0  0  0  0  0  0  0  0
  -14.7459  -26.3325   14.7468 H   0  0  0  0  0  0  0  0  0  0  0  0
  -18.0189  -25.4457   17.0943 H   0  0  0  0  0  0  0  0  0  0  0  0
  -18.1020  -27.7832   25.8342 H   0  0  0  0  0  0  0  0  0  0  0  0
  -15.2560  -28.2893   29.0515 H   0  0  0  0  0  0  0  0  0  0  0  0
  -12.7591  -27.0820   28.3852 H   0  0  0  0  0  0  0  0  0  0  0  0
  -11.8076  -25.8030   26.4081 H   0  0  0  0  0  0  0  0  0  0  0  0
  1  2  2  0
  2  3  1  0
  3  4  1  0
  4  5  1  0
  5  6  1  0
  6  7  1  0
  7  8  2  0
  8  9  1  0
  9 10  2  0
 10 11  1  0
 11 12  2  0
  2 13  1  0
 13 14  2  0
 14 15  1  0
 15 16  1  0
 15 17  2  0
 17 18  1  0
 18 19  1  0
 19 20  1  0
 20 21  2  0
 21 22  1  0
 12  7  1  0
 22 13  1  0
 22 18  2  0
  3 23  1  0
  4 24  1  0
  4 25  1  0
  5 26  1  0
  5 27  1  0
  8 28  1  0
  9 29  1  0
 10 30  1  0
 12 31  1  0
 14 32  1  0
 17 33  1  0
 19 34  1  0
 20 35  1  0
M  END
>  <Energy>  (874) 
73.192196990431711

>  <compound_id>  (874) 
16021

>  <target_id>  (874) 
1

>  <reference_id>  (874) 
48

>  <inspiration_ids>  (874) 
[52, 48]

>  <energy_score>  (874) 
-8.048659135937328

>  <distance_score>  (874) 
8.812457950722088

>  <path>  (874) 
/opt/xchem-fragalysis-2/maxwin/BulkDock/SCRATCH/511017/C16021-P48/C16021-P48.minimised.mol

>  <scratch_subdir>  (874) 
/opt/xchem-fragalysis-2/maxwin/BulkDock/SCRATCH/511017/C16021-P48

>  <fragmenstein_runtime>  (874) 
5.094548463821411

>  <fragmenstein_outcome>  (874) 
too moved

>  <fragmenstein_mode>  (874) 
expansion

>  <fragmenstein_error>  (874) 


$$$$
C16022-P52
     RDKit          3D

 34 36  0  0  0  0  0  0  0  0999 V2000
  -10.9870  -30.2893   20.8958 C   0  0  0  0  0  0  0  0  0  0  0  0
  -10.7158  -28.3922   20.9208 C   0  0  0  0  0  0  0  0  0  0  0  0
  -10.3836  -27.2322   22.5343 N   0  0  0  0  0  0  0  0  0  0  0  0
  -11.3806  -26.9792   24.1707 C   0  0  0  0  0  0  0  0  0  0  0  0
  -12.4657  -27.4895   24.3817 O   0  0  0  0  0  0  0  0  0  0  0  0
  -10.9799  -25.8796   25.5259 C   0  0  0  0  0  0  0  0  0  0  0  0
  -11.6649  -26.3255   26.7442 C   0  0  0  0  0  0  0  0  0  0  0  0
  -11.7039  -25.7078   28.0010 C   0  0  0  0  0  0  0  0  0  0  0  0
  -12.5107  -26.5922   29.4629 Br  0  0  0  0  0  0  0  0  0  0  0  0
  -11.2041  -24.4430   28.1589 C   0  0  0  0  0  0  0  0  0  0  0  0
  -10.8020  -23.8399   26.9736 C   0  0  0  0  0  0  0  0  0  0  0  0
  -10.4326  -22.5265   26.7854 N   0  0  0  0  0  0  0  0  0  0  0  0
  -10.1783  -22.3629   25.4674 C   0  0  0  0  0  0  0  0  0  0  0  0
  -10.3328  -23.4881   24.8153 N   0  0  0  0  0  0  0  0  0  0  0  0
  -10.7124  -24.4738   25.7007 C   0  0  0  0  0  0  0  0  0  0  0  0
  -11.4181  -28.0981   19.0458 C   0  0  0  0  0  0  0  0  0  0  0  0
  -10.7400  -27.7925   17.8110 C   0  0  0  0  0  0  0  0  0  0  0  0
  -11.2829  -27.7322   16.4930 C   0  0  0  0  0  0  0  0  0  0  0  0
  -12.6246  -27.8685   16.3341 C   0  0  0  0  0  0  0  0  0  0  0  0
  -13.4024  -27.9274   17.4063 N   0  0  0  0  0  0  0  0  0  0  0  0
  -12.7774  -27.9558   18.6494 C   0  0  0  0  0  0  0  0  0  0  0  0
  -11.8974  -30.6614   21.3841 H   0  0  0  0  0  0  0  0  0  0  0  0
  -11.1158  -30.5720   19.8456 H   0  0  0  0  0  0  0  0  0  0  0  0
  -10.1623  -30.8263   21.3788 H   0  0  0  0  0  0  0  0  0  0  0  0
   -9.6823  -28.7130   21.0120 H   0  0  0  0  0  0  0  0  0  0  0  0
   -9.5110  -26.7997   22.6112 H   0  0  0  0  0  0  0  0  0  0  0  0
  -12.2518  -27.2463   26.6829 H   0  0  0  0  0  0  0  0  0  0  0  0
  -11.2339  -23.9098   29.1025 H   0  0  0  0  0  0  0  0  0  0  0  0
  -10.3878  -21.8068   27.4959 H   0  0  0  0  0  0  0  0  0  0  0  0
   -9.8762  -21.4190   25.0332 H   0  0  0  0  0  0  0  0  0  0  0  0
   -9.7298  -27.4453   17.7320 H   0  0  0  0  0  0  0  0  0  0  0  0
  -10.6372  -27.5368   15.6423 H   0  0  0  0  0  0  0  0  0  0  0  0
  -13.1115  -27.8505   15.3676 H   0  0  0  0  0  0  0  0  0  0  0  0
  -13.4964  -27.5325   19.3240 H   0  0  0  0  0  0  0  0  0  0  0  0
  1  2  1  0
  2  3  1  0
  3  4  1  0
  4  5  2  0
  4  6  1  0
  6  7  2  0
  7  8  1  0
  8  9  1  0
  8 10  2  0
 10 11  1  0
 11 12  1  0
 12 13  1  0
 13 14  2  0
 14 15  1  0
  2 16  1  0
 16 17  2  0
 17 18  1  0
 18 19  2  0
 19 20  1  0
 20 21  2  0
 15  6  1  0
 21 16  1  0
 15 11  2  0
  1 22  1  0
  1 23  1  0
  1 24  1  0
  2 25  1  0
  3 26  1  0
  7 27  1  0
 10 28  1  0
 12 29  1  0
 13 30  1  0
 17 31  1  0
 18 32  1  0
 19 33  1  0
 21 34  1  0
M  END
>  <Energy>  (875) 
437.64912309812729

>  <compound_id>  (875) 
16022

>  <target_id>  (875) 
1

>  <reference_id>  (875) 
52

>  <inspiration_ids>  (875) 
[52, 48]

>  <energy_score>  (875) 
390.19841561186263

>  <distance_score>  (875) 
7.76964579380334

>  <path>  (875) 
/opt/xchem-fragalysis-2/maxwin/BulkDock/SCRATCH/511017/C16022-P52/C16022-P52.minimised.mol

>  <scratch_subdir>  (875) 
/opt/xchem-fragalysis-2/maxwin/BulkDock/SCRATCH/511017/C16022-P52

>  <fragmenstein_runtime>  (875) 
7.082615852355957

>  <fragmenstein_outcome>  (875) 
too moved

>  <fragmenstein_mode>  (875) 
expansion

>  <fragmenstein_error>  (875) 


$$$$
C16022-P48
     RDKit          3D

 34 36  0  0  0  0  0  0  0  0999 V2000
  -19.1563  -27.6708   21.4167 C   0  0  0  0  0  0  0  0  0  0  0  0
  -17.8224  -26.9174   21.3614 C   0  0  0  0  0  0  0  0  0  0  0  0
  -17.0817  -27.2042   22.6336 N   0  0  0  0  0  0  0  0  0  0  0  0
  -16.7619  -26.3385   23.7751 C   0  0  0  0  0  0  0  0  0  0  0  0
  -16.9436  -25.1643   23.9398 O   0  0  0  0  0  0  0  0  0  0  0  0
  -16.2004  -27.0213   25.0154 C   0  0  0  0  0  0  0  0  0  0  0  0
  -17.0685  -27.8667   25.7327 C   0  0  0  0  0  0  0  0  0  0  0  0
  -16.7136  -28.4063   26.9772 C   0  0  0  0  0  0  0  0  0  0  0  0
  -17.9495  -29.5297   27.8717 Br  0  0  0  0  0  0  0  0  0  0  0  0
  -15.4837  -28.1495   27.5805 C   0  0  0  0  0  0  0  0  0  0  0  0
  -14.6229  -27.3146   26.8760 C   0  0  0  0  0  0  0  0  0  0  0  0
  -13.3683  -26.8564   27.2102 N   0  0  0  0  0  0  0  0  0  0  0  0
  -12.9862  -25.9829   26.2411 C   0  0  0  0  0  0  0  0  0  0  0  0
  -13.8746  -25.9243   25.2701 N   0  0  0  0  0  0  0  0  0  0  0  0
  -14.9421  -26.7246   25.6370 C   0  0  0  0  0  0  0  0  0  0  0  0
  -17.1660  -27.1644   19.9825 C   0  0  0  0  0  0  0  0  0  0  0  0
  -16.4438  -28.3013   19.6198 C   0  0  0  0  0  0  0  0  0  0  0  0
  -15.8952  -28.4300   18.3308 C   0  0  0  0  0  0  0  0  0  0  0  0
  -16.1248  -27.4326   17.3990 C   0  0  0  0  0  0  0  0  0  0  0  0
  -16.8805  -26.3545   17.6647 N   0  0  0  0  0  0  0  0  0  0  0  0
  -17.3952  -26.2638   18.9251 C   0  0  0  0  0  0  0  0  0  0  0  0
  -19.7995  -27.4112   20.5688 H   0  0  0  0  0  0  0  0  0  0  0  0
  -19.7001  -27.4316   22.3376 H   0  0  0  0  0  0  0  0  0  0  0  0
  -18.9992  -28.7556   21.4010 H   0  0  0  0  0  0  0  0  0  0  0  0
  -18.0597  -25.8515   21.4244 H   0  0  0  0  0  0  0  0  0  0  0  0
  -16.8623  -28.1594   22.8717 H   0  0  0  0  0  0  0  0  0  0  0  0
  -18.0619  -28.0625   25.3290 H   0  0  0  0  0  0  0  0  0  0  0  0
  -15.2212  -28.5696   28.5464 H   0  0  0  0  0  0  0  0  0  0  0  0
  -12.8591  -27.0662   28.0602 H   0  0  0  0  0  0  0  0  0  0  0  0
  -12.0605  -25.4225   26.2995 H   0  0  0  0  0  0  0  0  0  0  0  0
  -16.3124  -29.1087   20.3325 H   0  0  0  0  0  0  0  0  0  0  0  0
  -15.3139  -29.3052   18.0612 H   0  0  0  0  0  0  0  0  0  0  0  0
  -15.7203  -27.4888   16.3935 H   0  0  0  0  0  0  0  0  0  0  0  0
  -18.0123  -25.3773   19.0806 H   0  0  0  0  0  0  0  0  0  0  0  0
  1  2  1  0
  2  3  1  0
  3  4  1  0
  4  5  2  0
  4  6  1  0
  6  7  2  0
  7  8  1  0
  8  9  1  0
  8 10  2  0
 10 11  1  0
 11 12  1  0
 12 13  1  0
 13 14  2  0
 14 15  1  0
  2 16  1  0
 16 17  2  0
 17 18  1  0
 18 19  2  0
 19 20  1  0
 20 21  2  0
 15  6  1  0
 21 16  1  0
 15 11  2  0
  1 22  1  0
  1 23  1  0
  1 24  1  0
  2 25  1  0
  3 26  1  0
  7 27  1  0
 10 28  1  0
 12 29  1  0
 13 30  1  0
 17 31  1  0
 18 32  1  0
 19 33  1  0
 21 34  1  0
M  END
>  <Energy>  (876) 
44.836014940504874

>  <compound_id>  (876) 
16022

>  <target_id>  (876) 
1

>  <reference_id>  (876) 
48

>  <inspiration_ids>  (876) 
[52, 48]

>  <energy_score>  (876) 
-2.6146925457536554

>  <distance_score>  (876) 
9.887865441093396

>  <path>  (876) 
/opt/xchem-fragalysis-2/maxwin/BulkDock/SCRATCH/511017/C16022-P48/C16022-P48.minimised.mol

>  <scratch_subdir>  (876) 
/opt/xchem-fragalysis-2/maxwin/BulkDock/SCRATCH/511017/C16022-P48

>  <fragmenstein_runtime>  (876) 
3.211066484451294

>  <fragmenstein_outcome>  (876) 
too moved

>  <fragmenstein_mode>  (876) 
expansion

>  <fragmenstein_error>  (876) 


$$$$
C16023-P52
     RDKit          3D

 37 39  0  0  0  0  0  0  0  0999 V2000
  -11.3625  -21.0198   22.7844 C   0  0  0  0  0  0  0  0  0  0  0  0
  -12.0273  -22.3905   22.7552 C   0  0  0  0  0  0  0  0  0  0  0  0
  -12.4656  -22.9949   21.0078 C   0  0  0  0  0  0  0  0  0  0  0  0
  -12.9650  -24.5923   20.4304 C   0  0  0  0  0  0  0  0  0  0  0  0
  -13.2544  -25.2447   19.2128 C   0  0  0  0  0  0  0  0  0  0  0  0
  -13.4947  -24.2835   18.3639 C   0  0  0  0  0  0  0  0  0  0  0  0
  -13.0574  -22.9555   18.7290 N   0  0  0  0  0  0  0  0  0  0  0  0
  -12.3322  -22.4228   19.8788 C   0  0  0  0  0  0  0  0  0  0  0  0
  -12.7727  -22.9084   24.3789 N   0  0  0  0  0  0  0  0  0  0  0  0
  -13.8384  -22.2884   23.8407 C   0  0  0  0  0  0  0  0  0  0  0  0
  -11.9370  -22.5403   25.4712 C   0  0  0  0  0  0  0  0  0  0  0  0
  -11.9150  -21.5372   26.1327 O   0  0  0  0  0  0  0  0  0  0  0  0
  -11.0041  -23.5593   25.9938 C   0  0  0  0  0  0  0  0  0  0  0  0
  -11.3433  -24.8478   26.1246 N   0  0  0  0  0  0  0  0  0  0  0  0
  -11.1969  -25.1309   27.4835 C   0  0  0  0  0  0  0  0  0  0  0  0
  -11.6671  -26.1901   28.2800 C   0  0  0  0  0  0  0  0  0  0  0  0
  -11.3964  -26.1817   29.6670 C   0  0  0  0  0  0  0  0  0  0  0  0
  -10.6206  -25.1715   30.2364 C   0  0  0  0  0  0  0  0  0  0  0  0
  -10.1024  -25.2090   32.0513 Br  0  0  0  0  0  0  0  0  0  0  0  0
  -10.1670  -24.1094   29.4700 C   0  0  0  0  0  0  0  0  0  0  0  0
  -10.4938  -24.1266   28.1180 C   0  0  0  0  0  0  0  0  0  0  0  0
  -10.3024  -23.1882   27.1452 N   0  0  0  0  0  0  0  0  0  0  0  0
  -11.4623  -20.5282   21.8293 H   0  0  0  0  0  0  0  0  0  0  0  0
  -10.2767  -21.1099   22.9145 H   0  0  0  0  0  0  0  0  0  0  0  0
  -11.7162  -20.4224   23.6196 H   0  0  0  0  0  0  0  0  0  0  0  0
  -11.0863  -22.8425   22.9660 H   0  0  0  0  0  0  0  0  0  0  0  0
  -13.4958  -25.1557   21.2166 H   0  0  0  0  0  0  0  0  0  0  0  0
  -13.5234  -26.2752   19.0606 H   0  0  0  0  0  0  0  0  0  0  0  0
  -13.9673  -24.4196   17.3989 H   0  0  0  0  0  0  0  0  0  0  0  0
  -11.7536  -21.5249   19.8654 H   0  0  0  0  0  0  0  0  0  0  0  0
  -13.7094  -21.2381   23.7704 H   0  0  0  0  0  0  0  0  0  0  0  0
  -14.0575  -22.9627   23.0602 H   0  0  0  0  0  0  0  0  0  0  0  0
  -14.6658  -22.4120   24.5531 H   0  0  0  0  0  0  0  0  0  0  0  0
  -12.2478  -26.9901   27.8338 H   0  0  0  0  0  0  0  0  0  0  0  0
  -11.7675  -27.0001   30.2778 H   0  0  0  0  0  0  0  0  0  0  0  0
   -9.5891  -23.3078   29.9048 H   0  0  0  0  0  0  0  0  0  0  0  0
  -10.2179  -22.2182   27.3989 H   0  0  0  0  0  0  0  0  0  0  0  0
  1  2  1  0
  2  3  1  0
  3  4  2  0
  4  5  1  0
  5  6  2  0
  6  7  1  0
  7  8  2  0
  2  9  1  0
  9 10  1  0
  9 11  1  0
 11 12  2  0
 11 13  1  0
 13 14  2  0
 14 15  1  0
 15 16  2  0
 16 17  1  0
 17 18  2  0
 18 19  1  0
 18 20  1  0
 20 21  2  0
 21 22  1  0
  8  3  1  0
 22 13  1  0
 21 15  1  0
  1 23  1  0
  1 24  1  0
  1 25  1  0
  2 26  1  0
  4 27  1  0
  5 28  1  0
  6 29  1  0
  8 30  1  0
 10 31  1  0
 10 32  1  0
 10 33  1  0
 16 34  1  0
 17 35  1  0
 20 36  1  0
 22 37  1  0
M  END
>  <Energy>  (877) 
325.06465332539756

>  <compound_id>  (877) 
16023

>  <target_id>  (877) 
1

>  <reference_id>  (877) 
52

>  <inspiration_ids>  (877) 
[52, 48]

>  <energy_score>  (877) 
261.8576480223462

>  <distance_score>  (877) 
8.102094104987337

>  <path>  (877) 
/opt/xchem-fragalysis-2/maxwin/BulkDock/SCRATCH/511017/C16023-P52/C16023-P52.minimised.mol

>  <scratch_subdir>  (877) 
/opt/xchem-fragalysis-2/maxwin/BulkDock/SCRATCH/511017/C16023-P52

>  <fragmenstein_runtime>  (877) 
9.632845163345337

>  <fragmenstein_outcome>  (877) 
too moved

>  <fragmenstein_mode>  (877) 
expansion

>  <fragmenstein_error>  (877) 


$$$$
C16023-P48
     RDKit          3D

 37 39  0  0  0  0  0  0  0  0999 V2000
  -11.3103  -23.2414   13.6714 C   0  0  0  0  0  0  0  0  0  0  0  0
  -10.2719  -23.6043   14.8628 C   0  0  0  0  0  0  0  0  0  0  0  0
  -10.0753  -25.1615   14.4235 C   0  0  0  0  0  0  0  0  0  0  0  0
   -9.5327  -25.6312   13.2051 C   0  0  0  0  0  0  0  0  0  0  0  0
   -9.7413  -26.9393   12.7618 C   0  0  0  0  0  0  0  0  0  0  0  0
  -10.5266  -27.7699   13.5276 C   0  0  0  0  0  0  0  0  0  0  0  0
  -11.0934  -27.3852   14.6841 N   0  0  0  0  0  0  0  0  0  0  0  0
  -10.8535  -26.1143   15.0959 C   0  0  0  0  0  0  0  0  0  0  0  0
   -8.9837  -22.5789   15.3619 N   0  0  0  0  0  0  0  0  0  0  0  0
   -8.9724  -22.4513   13.8968 C   0  0  0  0  0  0  0  0  0  0  0  0
   -9.3465  -21.3713   16.6881 C   0  0  0  0  0  0  0  0  0  0  0  0
   -9.7228  -20.3331   16.2799 O   0  0  0  0  0  0  0  0  0  0  0  0
   -9.1078  -21.2684   18.5778 C   0  0  0  0  0  0  0  0  0  0  0  0
   -9.0652  -20.6324   19.8962 N   0  0  0  0  0  0  0  0  0  0  0  0
  -10.0551  -21.2856   21.2778 C   0  0  0  0  0  0  0  0  0  0  0  0
  -10.0496  -21.3968   22.6597 C   0  0  0  0  0  0  0  0  0  0  0  0
  -11.2598  -21.3594   23.3215 C   0  0  0  0  0  0  0  0  0  0  0  0
  -12.2680  -22.0245   22.7350 C   0  0  0  0  0  0  0  0  0  0  0  0
  -13.6801  -22.5486   23.8871 Br  0  0  0  0  0  0  0  0  0  0  0  0
  -12.0978  -22.3827   21.3941 C   0  0  0  0  0  0  0  0  0  0  0  0
  -11.1137  -21.7253   20.6625 C   0  0  0  0  0  0  0  0  0  0  0  0
   -9.9872  -22.1148   19.8652 N   0  0  0  0  0  0  0  0  0  0  0  0
  -10.9775  -23.5933   12.6849 H   0  0  0  0  0  0  0  0  0  0  0  0
  -11.4815  -22.1821   13.5026 H   0  0  0  0  0  0  0  0  0  0  0  0
  -12.2709  -23.7491   13.8267 H   0  0  0  0  0  0  0  0  0  0  0  0
  -10.7383  -23.7957   15.7762 H   0  0  0  0  0  0  0  0  0  0  0  0
   -8.9626  -25.0067   12.5292 H   0  0  0  0  0  0  0  0  0  0  0  0
   -9.3130  -27.2882   11.8285 H   0  0  0  0  0  0  0  0  0  0  0  0
  -10.7275  -28.7931   13.2253 H   0  0  0  0  0  0  0  0  0  0  0  0
  -11.3889  -25.8670   16.0085 H   0  0  0  0  0  0  0  0  0  0  0  0
   -7.9996  -21.9938   13.6863 H   0  0  0  0  0  0  0  0  0  0  0  0
   -9.6731  -21.6849   13.5658 H   0  0  0  0  0  0  0  0  0  0  0  0
   -8.9312  -23.2616   13.1846 H   0  0  0  0  0  0  0  0  0  0  0  0
   -9.1265  -21.7389   23.0647 H   0  0  0  0  0  0  0  0  0  0  0  0
  -11.4172  -20.9633   24.3056 H   0  0  0  0  0  0  0  0  0  0  0  0
  -12.6868  -23.0877   20.8616 H   0  0  0  0  0  0  0  0  0  0  0  0
   -9.0984  -22.1327   20.2908 H   0  0  0  0  0  0  0  0  0  0  0  0
  1  2  1  0
  2  3  1  0
  3  4  2  0
  4  5  1  0
  5  6  2  0
  6  7  1  0
  7  8  2  0
  2  9  1  0
  9 10  1  0
  9 11  1  0
 11 12  2  0
 11 13  1  0
 13 14  2  0
 14 15  1  0
 15 16  2  0
 16 17  1  0
 17 18  2  0
 18 19  1  0
 18 20  1  0
 20 21  2  0
 21 22  1  0
  8  3  1  0
 22 13  1  0
 21 15  1  0
  1 23  1  0
  1 24  1  0
  1 25  1  0
  2 26  1  0
  4 27  1  0
  5 28  1  0
  6 29  1  0
  8 30  1  0
 10 31  1  0
 10 32  1  0
 10 33  1  0
 16 34  1  0
 17 35  1  0
 20 36  1  0
 22 37  1  0
M  END
>  <Energy>  (878) 
661.08224256787071

>  <compound_id>  (878) 
16023

>  <target_id>  (878) 
1

>  <reference_id>  (878) 
48

>  <inspiration_ids>  (878) 
[52, 48]

>  <energy_score>  (878) 
597.8752372648162

>  <distance_score>  (878) 
9.74032504647168

>  <path>  (878) 
/opt/xchem-fragalysis-2/maxwin/BulkDock/SCRATCH/511017/C16023-P48/C16023-P48.minimised.mol

>  <scratch_subdir>  (878) 
/opt/xchem-fragalysis-2/maxwin/BulkDock/SCRATCH/511017/C16023-P48

>  <fragmenstein_runtime>  (878) 
11.682715654373169

>  <fragmenstein_outcome>  (878) 
too moved

>  <fragmenstein_mode>  (878) 
expansion

>  <fragmenstein_error>  (878) 


$$$$
C16024-P52
     RDKit          3D

 37 39  0  0  0  0  0  0  0  0999 V2000
  -13.3226  -24.1077   19.1030 C   0  0  0  0  0  0  0  0  0  0  0  0
  -13.5010  -24.6546   20.7466 C   0  0  0  0  0  0  0  0  0  0  0  0
  -13.4991  -26.2101   19.4449 C   0  0  0  0  0  0  0  0  0  0  0  0
  -14.6664  -26.9129   18.8474 C   0  0  0  0  0  0  0  0  0  0  0  0
  -14.7988  -27.5916   17.5901 C   0  0  0  0  0  0  0  0  0  0  0  0
  -13.7231  -27.7046   16.7697 C   0  0  0  0  0  0  0  0  0  0  0  0
  -12.5517  -27.2606   17.1789 N   0  0  0  0  0  0  0  0  0  0  0  0
  -12.4921  -26.6082   18.4138 C   0  0  0  0  0  0  0  0  0  0  0  0
  -13.3022  -23.8558   22.6662 N   0  0  0  0  0  0  0  0  0  0  0  0
  -12.3491  -22.6227   21.8054 C   0  0  0  0  0  0  0  0  0  0  0  0
  -14.3227  -23.1314   23.6566 C   0  0  0  0  0  0  0  0  0  0  0  0
  -15.4821  -22.7599   23.4892 O   0  0  0  0  0  0  0  0  0  0  0  0
  -13.6297  -23.0731   25.0355 C   0  0  0  0  0  0  0  0  0  0  0  0
  -14.2163  -24.3375   25.5649 C   0  0  0  0  0  0  0  0  0  0  0  0
  -13.8056  -25.1259   26.6435 C   0  0  0  0  0  0  0  0  0  0  0  0
  -14.6808  -26.7527   27.0369 Br  0  0  0  0  0  0  0  0  0  0  0  0
  -12.7619  -24.7142   27.4116 C   0  0  0  0  0  0  0  0  0  0  0  0
  -12.2392  -23.4831   27.0489 C   0  0  0  0  0  0  0  0  0  0  0  0
  -11.3718  -22.7516   27.8052 N   0  0  0  0  0  0  0  0  0  0  0  0
  -11.3194  -21.5392   27.2351 C   0  0  0  0  0  0  0  0  0  0  0  0
  -11.8389  -21.5314   26.0246 N   0  0  0  0  0  0  0  0  0  0  0  0
  -12.5716  -22.6887   25.8996 C   0  0  0  0  0  0  0  0  0  0  0  0
  -13.1284  -24.6006   18.1536 H   0  0  0  0  0  0  0  0  0  0  0  0
  -12.8626  -23.1277   19.1058 H   0  0  0  0  0  0  0  0  0  0  0  0
  -14.3377  -24.0830   18.7016 H   0  0  0  0  0  0  0  0  0  0  0  0
  -14.0106  -25.4949   21.2090 H   0  0  0  0  0  0  0  0  0  0  0  0
  -15.6201  -27.0371   19.3522 H   0  0  0  0  0  0  0  0  0  0  0  0
  -15.7542  -28.0203   17.3021 H   0  0  0  0  0  0  0  0  0  0  0  0
  -13.7593  -28.1931   15.8044 H   0  0  0  0  0  0  0  0  0  0  0  0
  -11.4251  -26.4322   18.5016 H   0  0  0  0  0  0  0  0  0  0  0  0
  -12.5698  -21.7296   22.3833 H   0  0  0  0  0  0  0  0  0  0  0  0
  -11.3289  -22.6126   22.1855 H   0  0  0  0  0  0  0  0  0  0  0  0
  -12.3143  -22.5991   20.7413 H   0  0  0  0  0  0  0  0  0  0  0  0
  -15.0674  -24.7724   25.0309 H   0  0  0  0  0  0  0  0  0  0  0  0
  -12.4292  -25.2533   28.2902 H   0  0  0  0  0  0  0  0  0  0  0  0
  -10.9935  -23.0011   28.7089 H   0  0  0  0  0  0  0  0  0  0  0  0
  -10.8106  -20.7429   27.7421 H   0  0  0  0  0  0  0  0  0  0  0  0
  1  2  1  0
  2  3  1  0
  3  4  2  0
  4  5  1  0
  5  6  2  0
  6  7  1  0
  7  8  2  0
  2  9  1  0
  9 10  1  0
  9 11  1  0
 11 12  2  0
 11 13  1  0
 13 14  2  0
 14 15  1  0
 15 16  1  0
 15 17  2  0
 17 18  1  0
 18 19  1  0
 19 20  1  0
 20 21  2  0
 21 22  1  0
  8  3  1  0
 22 13  1  0
 22 18  2  0
  1 23  1  0
  1 24  1  0
  1 25  1  0
  2 26  1  0
  4 27  1  0
  5 28  1  0
  6 29  1  0
  8 30  1  0
 10 31  1  0
 10 32  1  0
 10 33  1  0
 14 34  1  0
 17 35  1  0
 19 36  1  0
 20 37  1  0
M  END
>  <Energy>  (879) 
586.18828327589881

>  <compound_id>  (879) 
16024

>  <target_id>  (879) 
1

>  <reference_id>  (879) 
52

>  <inspiration_ids>  (879) 
[52, 48]

>  <energy_score>  (879) 
525.442355926818

>  <distance_score>  (879) 
8.19876198388837

>  <path>  (879) 
/opt/xchem-fragalysis-2/maxwin/BulkDock/SCRATCH/511017/C16024-P52/C16024-P52.minimised.mol

>  <scratch_subdir>  (879) 
/opt/xchem-fragalysis-2/maxwin/BulkDock/SCRATCH/511017/C16024-P52

>  <fragmenstein_runtime>  (879) 
12.538272380828857

>  <fragmenstein_outcome>  (879) 
too moved

>  <fragmenstein_mode>  (879) 
expansion

>  <fragmenstein_error>  (879) 


$$$$
C16024-P48
     RDKit          3D

 37 39  0  0  0  0  0  0  0  0999 V2000
   -8.9936  -24.9683   20.8062 C   0  0  0  0  0  0  0  0  0  0  0  0
  -10.1911  -26.3318   21.1273 C   0  0  0  0  0  0  0  0  0  0  0  0
  -11.2436  -26.6420   19.2087 C   0  0  0  0  0  0  0  0  0  0  0  0
  -10.8670  -27.0573   17.7718 C   0  0  0  0  0  0  0  0  0  0  0  0
  -11.6830  -27.1196   16.6039 C   0  0  0  0  0  0  0  0  0  0  0  0
  -12.9924  -26.7368   16.6756 C   0  0  0  0  0  0  0  0  0  0  0  0
  -13.5256  -26.2704   17.8040 N   0  0  0  0  0  0  0  0  0  0  0  0
  -12.7030  -26.2152   18.9249 C   0  0  0  0  0  0  0  0  0  0  0  0
  -10.5178  -27.3555   22.9776 N   0  0  0  0  0  0  0  0  0  0  0  0
   -8.5191  -27.9908   22.7633 C   0  0  0  0  0  0  0  0  0  0  0  0
  -10.7858  -26.7070   24.8366 C   0  0  0  0  0  0  0  0  0  0  0  0
  -10.6309  -25.5079   25.0708 O   0  0  0  0  0  0  0  0  0  0  0  0
  -11.3205  -27.4348   26.1503 C   0  0  0  0  0  0  0  0  0  0  0  0
  -10.7030  -28.2384   27.1505 C   0  0  0  0  0  0  0  0  0  0  0  0
  -10.9692  -28.2675   28.5466 C   0  0  0  0  0  0  0  0  0  0  0  0
  -10.1049  -29.5705   29.6202 Br  0  0  0  0  0  0  0  0  0  0  0  0
  -11.6755  -27.2593   29.1641 C   0  0  0  0  0  0  0  0  0  0  0  0
  -12.0911  -26.2932   28.2725 C   0  0  0  0  0  0  0  0  0  0  0  0
  -12.3641  -24.9604   28.4762 N   0  0  0  0  0  0  0  0  0  0  0  0
  -12.5316  -24.4008   27.2446 C   0  0  0  0  0  0  0  0  0  0  0  0
  -12.7495  -25.3403   26.3562 N   0  0  0  0  0  0  0  0  0  0  0  0
  -12.1026  -26.4406   26.8766 C   0  0  0  0  0  0  0  0  0  0  0  0
   -8.1372  -24.9768   20.1205 H   0  0  0  0  0  0  0  0  0  0  0  0
   -8.3440  -24.3858   21.5319 H   0  0  0  0  0  0  0  0  0  0  0  0
   -9.8249  -24.3146   20.3677 H   0  0  0  0  0  0  0  0  0  0  0  0
  -10.8544  -25.4542   21.2398 H   0  0  0  0  0  0  0  0  0  0  0  0
   -9.8571  -27.3152   17.4566 H   0  0  0  0  0  0  0  0  0  0  0  0
  -11.2545  -27.4429   15.6597 H   0  0  0  0  0  0  0  0  0  0  0  0
  -13.6479  -26.7691   15.8124 H   0  0  0  0  0  0  0  0  0  0  0  0
  -13.2769  -25.6768   19.6869 H   0  0  0  0  0  0  0  0  0  0  0  0
   -8.2544  -28.8291   23.5497 H   0  0  0  0  0  0  0  0  0  0  0  0
   -7.4338  -27.7861   22.5420 H   0  0  0  0  0  0  0  0  0  0  0  0
   -8.5301  -28.8504   21.9746 H   0  0  0  0  0  0  0  0  0  0  0  0
   -9.8357  -28.8195   26.9057 H   0  0  0  0  0  0  0  0  0  0  0  0
  -11.7216  -27.1386   30.2395 H   0  0  0  0  0  0  0  0  0  0  0  0
  -12.3192  -24.4444   29.3463 H   0  0  0  0  0  0  0  0  0  0  0  0
  -12.5923  -23.3317   27.0757 H   0  0  0  0  0  0  0  0  0  0  0  0
  1  2  1  0
  2  3  1  0
  3  4  2  0
  4  5  1  0
  5  6  2  0
  6  7  1  0
  7  8  2  0
  2  9  1  0
  9 10  1  0
  9 11  1  0
 11 12  2  0
 11 13  1  0
 13 14  2  0
 14 15  1  0
 15 16  1  0
 15 17  2  0
 17 18  1  0
 18 19  1  0
 19 20  1  0
 20 21  2  0
 21 22  1  0
  8  3  1  0
 22 13  1  0
 22 18  2  0
  1 23  1  0
  1 24  1  0
  1 25  1  0
  2 26  1  0
  4 27  1  0
  5 28  1  0
  6 29  1  0
  8 30  1  0
 10 31  1  0
 10 32  1  0
 10 33  1  0
 14 34  1  0
 17 35  1  0
 19 36  1  0
 20 37  1  0
M  END
>  <Energy>  (880) 
838.01183911039345

>  <compound_id>  (880) 
16024

>  <target_id>  (880) 
1

>  <reference_id>  (880) 
48

>  <inspiration_ids>  (880) 
[52, 48]

>  <energy_score>  (880) 
777.2659117613124

>  <distance_score>  (880) 
7.655830579578344

>  <path>  (880) 
/opt/xchem-fragalysis-2/maxwin/BulkDock/SCRATCH/511017/C16024-P48/C16024-P48.minimised.mol

>  <scratch_subdir>  (880) 
/opt/xchem-fragalysis-2/maxwin/BulkDock/SCRATCH/511017/C16024-P48

>  <fragmenstein_runtime>  (880) 
5.703151702880859

>  <fragmenstein_outcome>  (880) 
too moved

>  <fragmenstein_mode>  (880) 
expansion

>  <fragmenstein_error>  (880) 


$$$$
C16027-P52
     RDKit          3D

 37 39  0  0  0  0  0  0  0  0999 V2000
  -11.2558  -24.7645   20.4457 O   0  0  0  0  0  0  0  0  0  0  0  0
  -12.1422  -24.0016   20.2144 C   0  0  0  0  0  0  0  0  0  0  0  0
  -13.2665  -24.7337   19.2684 C   0  0  0  0  0  0  0  0  0  0  0  0
  -13.5963  -25.2832   17.7899 C   0  0  0  0  0  0  0  0  0  0  0  0
  -14.7955  -25.0372   17.1140 C   0  0  0  0  0  0  0  0  0  0  0  0
  -15.0411  -25.5299   15.8205 C   0  0  0  0  0  0  0  0  0  0  0  0
  -14.1040  -26.3483   15.2283 C   0  0  0  0  0  0  0  0  0  0  0  0
  -12.9904  -26.7388   15.8637 N   0  0  0  0  0  0  0  0  0  0  0  0
  -12.7827  -26.2366   17.1137 C   0  0  0  0  0  0  0  0  0  0  0  0
  -12.3234  -22.6044   20.7845 N   0  0  0  0  0  0  0  0  0  0  0  0
  -11.4785  -21.7742   21.9343 C   0  0  0  0  0  0  0  0  0  0  0  0
  -12.1004  -22.1692   23.3984 C   0  0  0  0  0  0  0  0  0  0  0  0
  -12.1117  -22.2538   24.9815 C   0  0  0  0  0  0  0  0  0  0  0  0
  -11.7452  -21.4595   25.9758 N   0  0  0  0  0  0  0  0  0  0  0  0
  -11.7022  -22.2012   27.1500 C   0  0  0  0  0  0  0  0  0  0  0  0
  -11.2760  -21.8700   28.4489 C   0  0  0  0  0  0  0  0  0  0  0  0
  -11.3319  -22.8441   29.4574 C   0  0  0  0  0  0  0  0  0  0  0  0
  -11.8028  -24.1270   29.1795 C   0  0  0  0  0  0  0  0  0  0  0  0
  -12.2574  -24.4681   27.8986 C   0  0  0  0  0  0  0  0  0  0  0  0
  -12.1873  -23.4723   26.9160 C   0  0  0  0  0  0  0  0  0  0  0  0
  -12.6035  -23.4100   25.6078 N   0  0  0  0  0  0  0  0  0  0  0  0
  -13.6805  -25.1709   20.1878 H   0  0  0  0  0  0  0  0  0  0  0  0
  -12.8296  -25.7285   19.2772 H   0  0  0  0  0  0  0  0  0  0  0  0
  -15.5996  -24.4841   17.5792 H   0  0  0  0  0  0  0  0  0  0  0  0
  -15.9640  -25.2903   15.3029 H   0  0  0  0  0  0  0  0  0  0  0  0
  -14.2432  -26.7482   14.2293 H   0  0  0  0  0  0  0  0  0  0  0  0
  -11.8715  -26.6272   17.5707 H   0  0  0  0  0  0  0  0  0  0  0  0
  -13.0982  -22.1806   20.3441 H   0  0  0  0  0  0  0  0  0  0  0  0
  -11.6144  -20.7162   21.7570 H   0  0  0  0  0  0  0  0  0  0  0  0
  -10.4157  -21.9340   21.7987 H   0  0  0  0  0  0  0  0  0  0  0  0
  -13.0338  -22.6851   23.1638 H   0  0  0  0  0  0  0  0  0  0  0  0
  -11.2206  -22.8005   23.5111 H   0  0  0  0  0  0  0  0  0  0  0  0
  -10.8950  -20.8762   28.6578 H   0  0  0  0  0  0  0  0  0  0  0  0
  -11.0015  -22.5917   30.4628 H   0  0  0  0  0  0  0  0  0  0  0  0
  -11.8271  -24.8652   29.9771 H   0  0  0  0  0  0  0  0  0  0  0  0
  -12.6562  -25.4538   27.6889 H   0  0  0  0  0  0  0  0  0  0  0  0
  -13.1286  -24.1350   25.1497 H   0  0  0  0  0  0  0  0  0  0  0  0
  1  2  2  0
  2  3  1  0
  3  4  1  0
  4  5  2  0
  5  6  1  0
  6  7  2  0
  7  8  1  0
  8  9  2  0
  2 10  1  0
 10 11  1  0
 11 12  1  0
 12 13  1  0
 13 14  2  0
 14 15  1  0
 15 16  2  0
 16 17  1  0
 17 18  2  0
 18 19  1  0
 19 20  2  0
 20 21  1  0
  9  4  1  0
 21 13  1  0
 20 15  1  0
  3 22  1  0
  3 23  1  0
  5 24  1  0
  6 25  1  0
  7 26  1  0
  9 27  1  0
 10 28  1  0
 11 29  1  0
 11 30  1  0
 12 31  1  0
 12 32  1  0
 16 33  1  0
 17 34  1  0
 18 35  1  0
 19 36  1  0
 21 37  1  0
M  END
>  <Energy>  (881) 
219.67122513965722

>  <compound_id>  (881) 
16027

>  <target_id>  (881) 
1

>  <reference_id>  (881) 
52

>  <inspiration_ids>  (881) 
[52, 48]

>  <energy_score>  (881) 
170.2217724590239

>  <distance_score>  (881) 
6.775113328128253

>  <path>  (881) 
/opt/xchem-fragalysis-2/maxwin/BulkDock/SCRATCH/511017/C16027-P52/C16027-P52.minimised.mol

>  <scratch_subdir>  (881) 
/opt/xchem-fragalysis-2/maxwin/BulkDock/SCRATCH/511017/C16027-P52

>  <fragmenstein_runtime>  (881) 
10.511501789093018

>  <fragmenstein_outcome>  (881) 
too moved

>  <fragmenstein_mode>  (881) 
expansion

>  <fragmenstein_error>  (881) 


$$$$
C16027-P48
     RDKit          3D

 37 39  0  0  0  0  0  0  0  0999 V2000
  -13.5391  -25.6953   20.0545 O   0  0  0  0  0  0  0  0  0  0  0  0
  -13.3239  -24.6334   19.5149 C   0  0  0  0  0  0  0  0  0  0  0  0
  -13.8750  -24.6741   17.9477 C   0  0  0  0  0  0  0  0  0  0  0  0
  -13.4464  -25.6774   16.8674 C   0  0  0  0  0  0  0  0  0  0  0  0
  -12.3987  -26.5860   16.9571 C   0  0  0  0  0  0  0  0  0  0  0  0
  -11.9844  -27.2840   15.8175 C   0  0  0  0  0  0  0  0  0  0  0  0
  -12.6534  -27.0799   14.6200 C   0  0  0  0  0  0  0  0  0  0  0  0
  -13.7092  -26.2553   14.4941 N   0  0  0  0  0  0  0  0  0  0  0  0
  -14.0796  -25.5880   15.6112 C   0  0  0  0  0  0  0  0  0  0  0  0
  -12.6718  -23.1295   20.1788 N   0  0  0  0  0  0  0  0  0  0  0  0
  -12.3243  -22.7655   21.5701 C   0  0  0  0  0  0  0  0  0  0  0  0
  -11.8697  -21.7420   22.6669 C   0  0  0  0  0  0  0  0  0  0  0  0
  -12.5196  -22.0634   24.1498 C   0  0  0  0  0  0  0  0  0  0  0  0
  -12.1785  -21.5241   25.3115 N   0  0  0  0  0  0  0  0  0  0  0  0
  -12.2595  -22.5502   26.2832 C   0  0  0  0  0  0  0  0  0  0  0  0
  -11.6976  -22.6974   27.5689 C   0  0  0  0  0  0  0  0  0  0  0  0
  -11.6511  -23.9719   28.1584 C   0  0  0  0  0  0  0  0  0  0  0  0
  -12.2224  -25.0687   27.5188 C   0  0  0  0  0  0  0  0  0  0  0  0
  -12.9043  -24.9092   26.3033 C   0  0  0  0  0  0  0  0  0  0  0  0
  -12.9166  -23.6222   25.7308 C   0  0  0  0  0  0  0  0  0  0  0  0
  -13.3934  -23.0942   24.5248 N   0  0  0  0  0  0  0  0  0  0  0  0
  -14.9455  -24.8868   18.0430 H   0  0  0  0  0  0  0  0  0  0  0  0
  -13.8508  -23.7025   17.5181 H   0  0  0  0  0  0  0  0  0  0  0  0
  -11.8709  -26.7349   17.8942 H   0  0  0  0  0  0  0  0  0  0  0  0
  -11.1402  -27.9640   15.8637 H   0  0  0  0  0  0  0  0  0  0  0  0
  -12.3510  -27.5952   13.7132 H   0  0  0  0  0  0  0  0  0  0  0  0
  -14.9147  -24.9067   15.4572 H   0  0  0  0  0  0  0  0  0  0  0  0
  -12.6930  -22.3845   19.4688 H   0  0  0  0  0  0  0  0  0  0  0  0
  -13.2066  -22.9797   22.1125 H   0  0  0  0  0  0  0  0  0  0  0  0
  -11.4648  -23.3200   21.4545 H   0  0  0  0  0  0  0  0  0  0  0  0
  -10.7878  -21.8215   22.8268 H   0  0  0  0  0  0  0  0  0  0  0  0
  -12.0220  -20.7150   22.3955 H   0  0  0  0  0  0  0  0  0  0  0  0
  -11.2264  -21.8568   28.0575 H   0  0  0  0  0  0  0  0  0  0  0  0
  -11.1849  -24.0940   29.1305 H   0  0  0  0  0  0  0  0  0  0  0  0
  -12.1715  -26.0450   27.9944 H   0  0  0  0  0  0  0  0  0  0  0  0
  -13.3851  -25.7482   25.8139 H   0  0  0  0  0  0  0  0  0  0  0  0
  -13.9360  -23.6450   23.8920 H   0  0  0  0  0  0  0  0  0  0  0  0
  1  2  2  0
  2  3  1  0
  3  4  1  0
  4  5  2  0
  5  6  1  0
  6  7  2  0
  7  8  1  0
  8  9  2  0
  2 10  1  0
 10 11  1  0
 11 12  1  0
 12 13  1  0
 13 14  2  0
 14 15  1  0
 15 16  2  0
 16 17  1  0
 17 18  2  0
 18 19  1  0
 19 20  2  0
 20 21  1  0
  9  4  1  0
 21 13  1  0
 20 15  1  0
  3 22  1  0
  3 23  1  0
  5 24  1  0
  6 25  1  0
  7 26  1  0
  9 27  1  0
 10 28  1  0
 11 29  1  0
 11 30  1  0
 12 31  1  0
 12 32  1  0
 16 33  1  0
 17 34  1  0
 18 35  1  0
 19 36  1  0
 21 37  1  0
M  END
>  <Energy>  (882) 
184.04988930903968

>  <compound_id>  (882) 
16027

>  <target_id>  (882) 
1

>  <reference_id>  (882) 
48

>  <inspiration_ids>  (882) 
[52, 48]

>  <energy_score>  (882) 
134.60043662840405

>  <distance_score>  (882) 
6.92602154817508

>  <path>  (882) 
/opt/xchem-fragalysis-2/maxwin/BulkDock/SCRATCH/511017/C16027-P48/C16027-P48.minimised.mol

>  <scratch_subdir>  (882) 
/opt/xchem-fragalysis-2/maxwin/BulkDock/SCRATCH/511017/C16027-P48

>  <fragmenstein_runtime>  (882) 
7.213772296905518

>  <fragmenstein_outcome>  (882) 
too moved

>  <fragmenstein_mode>  (882) 
expansion

>  <fragmenstein_error>  (882) 


$$$$
C16028-P52
     RDKit          3D

 40 42  0  0  0  0  0  0  0  0999 V2000
  -12.8067  -25.6227   26.8965 C   0  0  0  0  0  0  0  0  0  0  0  0
  -14.1740  -26.0734   26.4770 C   0  0  0  0  0  0  0  0  0  0  0  0
  -15.1208  -26.4284   27.4480 C   0  0  0  0  0  0  0  0  0  0  0  0
  -16.4069  -26.8267   27.0765 C   0  0  0  0  0  0  0  0  0  0  0  0
  -16.7969  -26.9093   25.7259 C   0  0  0  0  0  0  0  0  0  0  0  0
  -15.8337  -26.6059   24.7590 C   0  0  0  0  0  0  0  0  0  0  0  0
  -15.8217  -26.6333   23.3570 N   0  0  0  0  0  0  0  0  0  0  0  0
  -14.5205  -26.3037   22.8676 C   0  0  0  0  0  0  0  0  0  0  0  0
  -13.9509  -25.7666   21.0794 C   0  0  0  0  0  0  0  0  0  0  0  0
  -13.7733  -26.5555   19.3911 C   0  0  0  0  0  0  0  0  0  0  0  0
  -14.5783  -26.5006   18.1594 N   0  0  0  0  0  0  0  0  0  0  0  0
  -14.8414  -27.5039   17.1568 C   0  0  0  0  0  0  0  0  0  0  0  0
  -14.5383  -28.6623   17.1121 O   0  0  0  0  0  0  0  0  0  0  0  0
  -15.5481  -26.8820   15.9261 C   0  0  0  0  0  0  0  0  0  0  0  0
  -14.6698  -26.5942   14.7120 C   0  0  0  0  0  0  0  0  0  0  0  0
  -13.3343  -26.9890   14.5886 C   0  0  0  0  0  0  0  0  0  0  0  0
  -12.6162  -26.6918   13.4282 C   0  0  0  0  0  0  0  0  0  0  0  0
  -13.2564  -26.0106   12.4090 C   0  0  0  0  0  0  0  0  0  0  0  0
  -14.5432  -25.6121   12.4747 N   0  0  0  0  0  0  0  0  0  0  0  0
  -15.2133  -25.9209   13.6128 C   0  0  0  0  0  0  0  0  0  0  0  0
  -13.8445  -25.9792   24.0015 N   0  0  0  0  0  0  0  0  0  0  0  0
  -14.5720  -26.1893   25.1281 C   0  0  0  0  0  0  0  0  0  0  0  0
  -12.3176  -26.4023   27.4891 H   0  0  0  0  0  0  0  0  0  0  0  0
  -12.8802  -24.7110   27.4980 H   0  0  0  0  0  0  0  0  0  0  0  0
  -12.1717  -25.4074   26.0318 H   0  0  0  0  0  0  0  0  0  0  0  0
  -14.8599  -26.3811   28.5021 H   0  0  0  0  0  0  0  0  0  0  0  0
  -17.1304  -27.0842   27.8483 H   0  0  0  0  0  0  0  0  0  0  0  0
  -17.7977  -27.2303   25.4551 H   0  0  0  0  0  0  0  0  0  0  0  0
  -16.6266  -26.8028   22.7748 H   0  0  0  0  0  0  0  0  0  0  0  0
  -14.0079  -24.7261   21.0762 H   0  0  0  0  0  0  0  0  0  0  0  0
  -12.9972  -25.3246   20.9519 H   0  0  0  0  0  0  0  0  0  0  0  0
  -13.2617  -27.5118   19.3367 H   0  0  0  0  0  0  0  0  0  0  0  0
  -13.0170  -25.8680   19.0029 H   0  0  0  0  0  0  0  0  0  0  0  0
  -14.9141  -25.6033   17.8253 H   0  0  0  0  0  0  0  0  0  0  0  0
  -16.3317  -27.5897   15.6257 H   0  0  0  0  0  0  0  0  0  0  0  0
  -16.0600  -25.9575   16.2191 H   0  0  0  0  0  0  0  0  0  0  0  0
  -12.8314  -27.5389   15.3815 H   0  0  0  0  0  0  0  0  0  0  0  0
  -11.5787  -26.9926   13.3248 H   0  0  0  0  0  0  0  0  0  0  0  0
  -12.7348  -25.7672   11.4884 H   0  0  0  0  0  0  0  0  0  0  0  0
  -16.2516  -25.5966   13.6162 H   0  0  0  0  0  0  0  0  0  0  0  0
  1  2  1  0
  2  3  2  0
  3  4  1  0
  4  5  2  0
  5  6  1  0
  6  7  1  0
  7  8  1  0
  8  9  1  0
  9 10  1  0
 10 11  1  0
 11 12  1  0
 12 13  2  0
 12 14  1  0
 14 15  1  0
 15 16  2  0
 16 17  1  0
 17 18  2  0
 18 19  1  0
 19 20  2  0
  8 21  2  0
 21 22  1  0
 22  2  1  0
 22  6  2  0
 20 15  1  0
  1 23  1  0
  1 24  1  0
  1 25  1  0
  3 26  1  0
  4 27  1  0
  5 28  1  0
  7 29  1  0
  9 30  1  0
  9 31  1  0
 10 32  1  0
 10 33  1  0
 11 34  1  0
 14 35  1  0
 14 36  1  0
 16 37  1  0
 17 38  1  0
 18 39  1  0
 20 40  1  0
M  END
>  <Energy>  (883) 
204.65053255169624

>  <compound_id>  (883) 
16028

>  <target_id>  (883) 
1

>  <reference_id>  (883) 
52

>  <inspiration_ids>  (883) 
[52, 48]

>  <energy_score>  (883) 
145.0795045887494

>  <distance_score>  (883) 
7.759181232846122

>  <path>  (883) 
/opt/xchem-fragalysis-2/maxwin/BulkDock/SCRATCH/511017/C16028-P52/C16028-P52.minimised.mol

>  <scratch_subdir>  (883) 
/opt/xchem-fragalysis-2/maxwin/BulkDock/SCRATCH/511017/C16028-P52

>  <fragmenstein_runtime>  (883) 
14.876001119613647

>  <fragmenstein_outcome>  (883) 
too moved

>  <fragmenstein_mode>  (883) 
expansion

>  <fragmenstein_error>  (883) 


$$$$
C16028-P48
     RDKit          3D

 40 42  0  0  0  0  0  0  0  0999 V2000
  -11.2945  -25.9916   26.3146 C   0  0  0  0  0  0  0  0  0  0  0  0
  -11.2821  -24.5110   26.5483 C   0  0  0  0  0  0  0  0  0  0  0  0
  -11.2583  -24.1455   27.8978 C   0  0  0  0  0  0  0  0  0  0  0  0
  -11.6312  -22.8814   28.2372 C   0  0  0  0  0  0  0  0  0  0  0  0
  -12.2229  -22.0683   27.2630 C   0  0  0  0  0  0  0  0  0  0  0  0
  -12.3123  -22.4147   25.8909 C   0  0  0  0  0  0  0  0  0  0  0  0
  -12.7571  -21.8941   24.5844 N   0  0  0  0  0  0  0  0  0  0  0  0
  -12.0658  -22.5082   23.4981 C   0  0  0  0  0  0  0  0  0  0  0  0
  -12.1690  -22.6424   21.6524 C   0  0  0  0  0  0  0  0  0  0  0  0
  -12.3284  -24.1893   20.5027 C   0  0  0  0  0  0  0  0  0  0  0  0
  -13.3275  -24.9323   19.2850 N   0  0  0  0  0  0  0  0  0  0  0  0
  -13.0923  -26.1278   18.4267 C   0  0  0  0  0  0  0  0  0  0  0  0
  -12.1881  -26.9217   18.4193 O   0  0  0  0  0  0  0  0  0  0  0  0
  -14.1826  -26.2437   17.3240 C   0  0  0  0  0  0  0  0  0  0  0  0
  -13.7228  -26.0038   15.8851 C   0  0  0  0  0  0  0  0  0  0  0  0
  -12.4942  -26.4404   15.3757 C   0  0  0  0  0  0  0  0  0  0  0  0
  -12.1476  -26.1846   14.0460 C   0  0  0  0  0  0  0  0  0  0  0  0
  -13.0520  -25.5129   13.2430 C   0  0  0  0  0  0  0  0  0  0  0  0
  -14.2621  -25.1021   13.6739 N   0  0  0  0  0  0  0  0  0  0  0  0
  -14.5668  -25.3656   14.9701 C   0  0  0  0  0  0  0  0  0  0  0  0
  -11.1172  -23.1411   24.2110 N   0  0  0  0  0  0  0  0  0  0  0  0
  -11.5774  -23.4961   25.5679 C   0  0  0  0  0  0  0  0  0  0  0  0
  -11.0460  -26.5587   27.2183 H   0  0  0  0  0  0  0  0  0  0  0  0
  -10.5970  -26.2881   25.5593 H   0  0  0  0  0  0  0  0  0  0  0  0
  -12.3020  -26.3002   26.0177 H   0  0  0  0  0  0  0  0  0  0  0  0
  -10.9801  -24.8476   28.6773 H   0  0  0  0  0  0  0  0  0  0  0  0
  -11.6047  -22.5443   29.2685 H   0  0  0  0  0  0  0  0  0  0  0  0
  -12.5304  -21.1320   27.6620 H   0  0  0  0  0  0  0  0  0  0  0  0
  -13.4439  -21.1584   24.5510 H   0  0  0  0  0  0  0  0  0  0  0  0
  -11.1053  -22.4226   21.4937 H   0  0  0  0  0  0  0  0  0  0  0  0
  -12.3939  -21.7255   21.1908 H   0  0  0  0  0  0  0  0  0  0  0  0
  -11.3205  -24.5570   20.4326 H   0  0  0  0  0  0  0  0  0  0  0  0
  -12.6215  -25.0061   21.0666 H   0  0  0  0  0  0  0  0  0  0  0  0
  -14.1328  -24.4586   18.9637 H   0  0  0  0  0  0  0  0  0  0  0  0
  -14.5929  -27.2595   17.3870 H   0  0  0  0  0  0  0  0  0  0  0  0
  -15.0113  -25.5645   17.5521 H   0  0  0  0  0  0  0  0  0  0  0  0
  -11.7803  -26.9686   16.0052 H   0  0  0  0  0  0  0  0  0  0  0  0
  -11.1850  -26.4980   13.6557 H   0  0  0  0  0  0  0  0  0  0  0  0
  -12.8212  -25.2852   12.2069 H   0  0  0  0  0  0  0  0  0  0  0  0
  -15.5551  -25.0211   15.2667 H   0  0  0  0  0  0  0  0  0  0  0  0
  1  2  1  0
  2  3  2  0
  3  4  1  0
  4  5  2  0
  5  6  1  0
  6  7  1  0
  7  8  1  0
  8  9  1  0
  9 10  1  0
 10 11  1  0
 11 12  1  0
 12 13  2  0
 12 14  1  0
 14 15  1  0
 15 16  2  0
 16 17  1  0
 17 18  2  0
 18 19  1  0
 19 20  2  0
  8 21  2  0
 21 22  1  0
 22  2  1  0
 22  6  2  0
 20 15  1  0
  1 23  1  0
  1 24  1  0
  1 25  1  0
  3 26  1  0
  4 27  1  0
  5 28  1  0
  7 29  1  0
  9 30  1  0
  9 31  1  0
 10 32  1  0
 10 33  1  0
 11 34  1  0
 14 35  1  0
 14 36  1  0
 16 37  1  0
 17 38  1  0
 18 39  1  0
 20 40  1  0
M  END
>  <Energy>  (884) 
266.98219643809512

>  <compound_id>  (884) 
16028

>  <target_id>  (884) 
1

>  <reference_id>  (884) 
48

>  <inspiration_ids>  (884) 
[52, 48]

>  <energy_score>  (884) 
207.41116847514496

>  <distance_score>  (884) 
6.3967811959729195

>  <path>  (884) 
/opt/xchem-fragalysis-2/maxwin/BulkDock/SCRATCH/511017/C16028-P48/C16028-P48.minimised.mol

>  <scratch_subdir>  (884) 
/opt/xchem-fragalysis-2/maxwin/BulkDock/SCRATCH/511017/C16028-P48

>  <fragmenstein_runtime>  (884) 
6.4820873737335205

>  <fragmenstein_outcome>  (884) 
too moved

>  <fragmenstein_mode>  (884) 
expansion

>  <fragmenstein_error>  (884) 


$$$$
C16029-P52
     RDKit          3D

 53 56  0  0  0  0  0  0  0  0999 V2000
  -13.9322  -24.0055   17.7548 O   0  0  0  0  0  0  0  0  0  0  0  0
  -13.4331  -24.7508   18.5491 C   0  0  0  0  0  0  0  0  0  0  0  0
  -12.6999  -24.4368   19.9000 N   0  0  0  0  0  0  0  0  0  0  0  0
  -12.2547  -22.8668   20.6522 C   0  0  0  0  0  0  0  0  0  0  0  0
  -11.4388  -22.0459   21.9013 C   0  0  0  0  0  0  0  0  0  0  0  0
  -11.8066  -22.2885   23.4577 C   0  0  0  0  0  0  0  0  0  0  0  0
  -10.9251  -22.6241   24.3886 N   0  0  0  0  0  0  0  0  0  0  0  0
  -11.5776  -23.0708   25.5259 C   0  0  0  0  0  0  0  0  0  0  0  0
  -11.0757  -23.5304   26.7579 C   0  0  0  0  0  0  0  0  0  0  0  0
  -11.9021  -24.2976   27.5832 C   0  0  0  0  0  0  0  0  0  0  0  0
  -13.1922  -24.6156   27.1631 C   0  0  0  0  0  0  0  0  0  0  0  0
  -13.7303  -24.0856   25.9708 C   0  0  0  0  0  0  0  0  0  0  0  0
  -12.9124  -23.2292   25.2218 C   0  0  0  0  0  0  0  0  0  0  0  0
  -13.0664  -22.5197   24.0251 N   0  0  0  0  0  0  0  0  0  0  0  0
  -13.5497  -26.3578   17.9860 C   0  0  0  0  0  0  0  0  0  0  0  0
  -14.9352  -26.4207   17.1741 C   0  0  0  0  0  0  0  0  0  0  0  0
  -15.8783  -27.4181   17.4122 C   0  0  0  0  0  0  0  0  0  0  0  0
  -16.9134  -27.6226   16.4910 C   0  0  0  0  0  0  0  0  0  0  0  0
  -16.9964  -26.8197   15.3614 C   0  0  0  0  0  0  0  0  0  0  0  0
  -16.1340  -25.8277   15.0979 N   0  0  0  0  0  0  0  0  0  0  0  0
  -15.1403  -25.6508   16.0013 C   0  0  0  0  0  0  0  0  0  0  0  0
  -12.6238  -26.9441   16.7873 C   0  0  0  0  0  0  0  0  0  0  0  0
  -13.0561  -28.3576   16.2672 C   0  0  0  0  0  0  0  0  0  0  0  0
  -12.0360  -29.0393   15.3397 C   0  0  0  0  0  0  0  0  0  0  0  0
  -11.1182  -28.0433   14.6536 C   0  0  0  0  0  0  0  0  0  0  0  0
  -10.3421  -27.2567   15.6961 C   0  0  0  0  0  0  0  0  0  0  0  0
  -11.1364  -27.0415   16.9913 C   0  0  0  0  0  0  0  0  0  0  0  0
  -12.3274  -25.2861   20.2811 H   0  0  0  0  0  0  0  0  0  0  0  0
  -13.0384  -22.8828   21.3706 H   0  0  0  0  0  0  0  0  0  0  0  0
  -12.3113  -22.2450   19.7857 H   0  0  0  0  0  0  0  0  0  0  0  0
  -10.3668  -21.9704   21.7256 H   0  0  0  0  0  0  0  0  0  0  0  0
  -11.6855  -20.9881   21.7911 H   0  0  0  0  0  0  0  0  0  0  0  0
  -10.0426  -23.3484   27.0243 H   0  0  0  0  0  0  0  0  0  0  0  0
  -11.5163  -24.6827   28.5230 H   0  0  0  0  0  0  0  0  0  0  0  0
  -13.8167  -25.2528   27.7856 H   0  0  0  0  0  0  0  0  0  0  0  0
  -14.7535  -24.2977   25.6810 H   0  0  0  0  0  0  0  0  0  0  0  0
  -13.9087  -22.5524   23.4908 H   0  0  0  0  0  0  0  0  0  0  0  0
  -13.5862  -27.0345   18.8384 H   0  0  0  0  0  0  0  0  0  0  0  0
  -15.7863  -28.0836   18.2639 H   0  0  0  0  0  0  0  0  0  0  0  0
  -17.6418  -28.4115   16.6477 H   0  0  0  0  0  0  0  0  0  0  0  0
  -17.7863  -26.9592   14.6296 H   0  0  0  0  0  0  0  0  0  0  0  0
  -14.4461  -24.8713   15.6988 H   0  0  0  0  0  0  0  0  0  0  0  0
  -12.7285  -26.2586   15.9383 H   0  0  0  0  0  0  0  0  0  0  0  0
  -13.2643  -29.0233   17.1139 H   0  0  0  0  0  0  0  0  0  0  0  0
  -13.9794  -28.2791   15.6857 H   0  0  0  0  0  0  0  0  0  0  0  0
  -12.5653  -29.6428   14.5931 H   0  0  0  0  0  0  0  0  0  0  0  0
  -11.4314  -29.7418   15.9279 H   0  0  0  0  0  0  0  0  0  0  0  0
  -11.7129  -27.3615   14.0335 H   0  0  0  0  0  0  0  0  0  0  0  0
  -10.4244  -28.5581   13.9800 H   0  0  0  0  0  0  0  0  0  0  0  0
  -10.0509  -26.2911   15.2646 H   0  0  0  0  0  0  0  0  0  0  0  0
   -9.4062  -27.7731   15.9421 H   0  0  0  0  0  0  0  0  0  0  0  0
  -10.8894  -27.8085   17.7336 H   0  0  0  0  0  0  0  0  0  0  0  0
  -10.8326  -26.0931   17.3467 H   0  0  0  0  0  0  0  0  0  0  0  0
  1  2  2  0
  2  3  1  0
  3  4  1  0
  4  5  1  0
  5  6  1  0
  6  7  2  0
  7  8  1  0
  8  9  2  0
  9 10  1  0
 10 11  2  0
 11 12  1  0
 12 13  2  0
 13 14  1  0
  2 15  1  0
 15 16  1  0
 16 17  2  0
 17 18  1  0
 18 19  2  0
 19 20  1  0
 20 21  2  0
 15 22  1  0
 22 23  1  0
 23 24  1  0
 24 25  1  0
 25 26  1  0
 26 27  1  0
 14  6  1  0
 21 16  1  0
 27 22  1  0
 13  8  1  0
  3 28  1  0
  4 29  1  0
  4 30  1  0
  5 31  1  0
  5 32  1  0
  9 33  1  0
 10 34  1  0
 11 35  1  0
 12 36  1  0
 14 37  1  0
 15 38  1  0
 17 39  1  0
 18 40  1  0
 19 41  1  0
 21 42  1  0
 22 43  1  0
 23 44  1  0
 23 45  1  0
 24 46  1  0
 24 47  1  0
 25 48  1  0
 25 49  1  0
 26 50  1  0
 26 51  1  0
 27 52  1  0
 27 53  1  0
M  END
>  <Energy>  (885) 
214.10546543651728

>  <compound_id>  (885) 
16029

>  <target_id>  (885) 
1

>  <reference_id>  (885) 
52

>  <inspiration_ids>  (885) 
[52, 48]

>  <energy_score>  (885) 
122.74931817051288

>  <distance_score>  (885) 
7.310961665237916

>  <path>  (885) 
/opt/xchem-fragalysis-2/maxwin/BulkDock/SCRATCH/511017/C16029-P52/C16029-P52.minimised.mol

>  <scratch_subdir>  (885) 
/opt/xchem-fragalysis-2/maxwin/BulkDock/SCRATCH/511017/C16029-P52

>  <fragmenstein_runtime>  (885) 
17.949976444244385

>  <fragmenstein_outcome>  (885) 
too moved

>  <fragmenstein_mode>  (885) 
expansion

>  <fragmenstein_error>  (885) 


$$$$
C16029-P48
     RDKit          3D

 53 56  0  0  0  0  0  0  0  0999 V2000
  -14.3033  -24.1429   17.9264 O   0  0  0  0  0  0  0  0  0  0  0  0
  -13.6941  -24.9093   18.6426 C   0  0  0  0  0  0  0  0  0  0  0  0
  -12.8947  -24.6391   19.9812 N   0  0  0  0  0  0  0  0  0  0  0  0
  -12.5125  -23.1048   20.8318 C   0  0  0  0  0  0  0  0  0  0  0  0
  -12.4466  -22.3732   22.4523 C   0  0  0  0  0  0  0  0  0  0  0  0
  -13.1384  -22.7290   23.8312 C   0  0  0  0  0  0  0  0  0  0  0  0
  -13.8416  -23.7877   24.2341 N   0  0  0  0  0  0  0  0  0  0  0  0
  -13.3333  -24.1376   25.4956 C   0  0  0  0  0  0  0  0  0  0  0  0
  -13.2603  -25.4012   26.1353 C   0  0  0  0  0  0  0  0  0  0  0  0
  -12.4705  -25.5496   27.2934 C   0  0  0  0  0  0  0  0  0  0  0  0
  -11.7998  -24.4533   27.8325 C   0  0  0  0  0  0  0  0  0  0  0  0
  -11.8498  -23.2016   27.2044 C   0  0  0  0  0  0  0  0  0  0  0  0
  -12.5465  -23.1181   25.9898 C   0  0  0  0  0  0  0  0  0  0  0  0
  -12.6134  -22.1654   24.9865 N   0  0  0  0  0  0  0  0  0  0  0  0
  -13.6314  -26.4189   18.0173 C   0  0  0  0  0  0  0  0  0  0  0  0
  -14.5662  -26.6171   16.7560 C   0  0  0  0  0  0  0  0  0  0  0  0
  -14.6779  -25.6977   15.6903 C   0  0  0  0  0  0  0  0  0  0  0  0
  -15.2998  -26.0299   14.4834 C   0  0  0  0  0  0  0  0  0  0  0  0
  -15.8237  -27.2952   14.3572 C   0  0  0  0  0  0  0  0  0  0  0  0
  -15.7788  -28.2084   15.3482 N   0  0  0  0  0  0  0  0  0  0  0  0
  -15.1674  -27.8477   16.5099 C   0  0  0  0  0  0  0  0  0  0  0  0
  -12.2053  -26.9389   17.5600 C   0  0  0  0  0  0  0  0  0  0  0  0
  -11.7442  -26.5260   16.1365 C   0  0  0  0  0  0  0  0  0  0  0  0
  -10.3591  -27.0165   15.7169 C   0  0  0  0  0  0  0  0  0  0  0  0
  -10.0372  -28.4109   16.2255 C   0  0  0  0  0  0  0  0  0  0  0  0
  -11.2919  -29.1723   16.6190 C   0  0  0  0  0  0  0  0  0  0  0  0
  -12.0516  -28.4667   17.7438 C   0  0  0  0  0  0  0  0  0  0  0  0
  -12.4419  -25.4786   20.2721 H   0  0  0  0  0  0  0  0  0  0  0  0
  -12.4920  -22.3129   20.0979 H   0  0  0  0  0  0  0  0  0  0  0  0
  -11.4948  -23.3977   20.9662 H   0  0  0  0  0  0  0  0  0  0  0  0
  -11.3814  -22.4378   22.7192 H   0  0  0  0  0  0  0  0  0  0  0  0
  -12.4321  -21.2950   22.3380 H   0  0  0  0  0  0  0  0  0  0  0  0
  -13.7969  -26.2418   25.7088 H   0  0  0  0  0  0  0  0  0  0  0  0
  -12.4084  -26.5148   27.7904 H   0  0  0  0  0  0  0  0  0  0  0  0
  -11.2383  -24.5601   28.7579 H   0  0  0  0  0  0  0  0  0  0  0  0
  -11.3361  -22.3463   27.6280 H   0  0  0  0  0  0  0  0  0  0  0  0
  -12.2069  -21.2455   25.0364 H   0  0  0  0  0  0  0  0  0  0  0  0
  -14.0204  -27.0514   18.8264 H   0  0  0  0  0  0  0  0  0  0  0  0
  -14.2448  -24.7076   15.7514 H   0  0  0  0  0  0  0  0  0  0  0  0
  -15.3611  -25.3148   13.6714 H   0  0  0  0  0  0  0  0  0  0  0  0
  -16.3153  -27.6170   13.4447 H   0  0  0  0  0  0  0  0  0  0  0  0
  -15.1526  -28.6405   17.2524 H   0  0  0  0  0  0  0  0  0  0  0  0
  -11.4975  -26.5104   18.2551 H   0  0  0  0  0  0  0  0  0  0  0  0
  -12.4276  -26.9426   15.3893 H   0  0  0  0  0  0  0  0  0  0  0  0
  -11.7738  -25.4452   16.0190 H   0  0  0  0  0  0  0  0  0  0  0  0
   -9.5760  -26.3314   16.0423 H   0  0  0  0  0  0  0  0  0  0  0  0
  -10.3095  -27.0089   14.6204 H   0  0  0  0  0  0  0  0  0  0  0  0
   -9.3745  -28.3435   17.0957 H   0  0  0  0  0  0  0  0  0  0  0  0
   -9.4826  -28.9657   15.4601 H   0  0  0  0  0  0  0  0  0  0  0  0
  -11.0221  -30.1829   16.9471 H   0  0  0  0  0  0  0  0  0  0  0  0
  -11.9459  -29.2933   15.7465 H   0  0  0  0  0  0  0  0  0  0  0  0
  -13.0147  -28.9660   17.8793 H   0  0  0  0  0  0  0  0  0  0  0  0
  -11.5107  -28.6392   18.6839 H   0  0  0  0  0  0  0  0  0  0  0  0
  1  2  2  0
  2  3  1  0
  3  4  1  0
  4  5  1  0
  5  6  1  0
  6  7  2  0
  7  8  1  0
  8  9  2  0
  9 10  1  0
 10 11  2  0
 11 12  1  0
 12 13  2  0
 13 14  1  0
  2 15  1  0
 15 16  1  0
 16 17  2  0
 17 18  1  0
 18 19  2  0
 19 20  1  0
 20 21  2  0
 15 22  1  0
 22 23  1  0
 23 24  1  0
 24 25  1  0
 25 26  1  0
 26 27  1  0
 14  6  1  0
 21 16  1  0
 27 22  1  0
 13  8  1  0
  3 28  1  0
  4 29  1  0
  4 30  1  0
  5 31  1  0
  5 32  1  0
  9 33  1  0
 10 34  1  0
 11 35  1  0
 12 36  1  0
 14 37  1  0
 15 38  1  0
 17 39  1  0
 18 40  1  0
 19 41  1  0
 21 42  1  0
 22 43  1  0
 23 44  1  0
 23 45  1  0
 24 46  1  0
 24 47  1  0
 25 48  1  0
 25 49  1  0
 26 50  1  0
 26 51  1  0
 27 52  1  0
 27 53  1  0
M  END
>  <Energy>  (886) 
205.64576909926299

>  <compound_id>  (886) 
16029

>  <target_id>  (886) 
1

>  <reference_id>  (886) 
48

>  <inspiration_ids>  (886) 
[52, 48]

>  <energy_score>  (886) 
114.28962183325524

>  <distance_score>  (886) 
7.119708069792428

>  <path>  (886) 
/opt/xchem-fragalysis-2/maxwin/BulkDock/SCRATCH/511017/C16029-P48/C16029-P48.minimised.mol

>  <scratch_subdir>  (886) 
/opt/xchem-fragalysis-2/maxwin/BulkDock/SCRATCH/511017/C16029-P48

>  <fragmenstein_runtime>  (886) 
11.58443570137024

>  <fragmenstein_outcome>  (886) 
too moved

>  <fragmenstein_mode>  (886) 
expansion

>  <fragmenstein_error>  (886) 


$$$$
C16030-P52
     RDKit          3D

 50 53  0  0  0  0  0  0  0  0999 V2000
  -13.8645  -23.9254   17.9573 O   0  0  0  0  0  0  0  0  0  0  0  0
  -13.3461  -24.6861   18.7236 C   0  0  0  0  0  0  0  0  0  0  0  0
  -12.5935  -24.4102   20.0590 N   0  0  0  0  0  0  0  0  0  0  0  0
  -12.1167  -22.8147   20.8767 C   0  0  0  0  0  0  0  0  0  0  0  0
  -12.2740  -22.2573   22.6265 C   0  0  0  0  0  0  0  0  0  0  0  0
  -11.6849  -22.4704   24.1910 C   0  0  0  0  0  0  0  0  0  0  0  0
  -12.1712  -21.8151   25.2456 N   0  0  0  0  0  0  0  0  0  0  0  0
  -11.7585  -22.4334   26.4284 C   0  0  0  0  0  0  0  0  0  0  0  0
  -11.8290  -22.0972   27.7954 C   0  0  0  0  0  0  0  0  0  0  0  0
  -11.4597  -23.0354   28.7719 C   0  0  0  0  0  0  0  0  0  0  0  0
  -11.0120  -24.2957   28.3915 C   0  0  0  0  0  0  0  0  0  0  0  0
  -10.8310  -24.6075   27.0375 C   0  0  0  0  0  0  0  0  0  0  0  0
  -11.1314  -23.6091   26.1001 C   0  0  0  0  0  0  0  0  0  0  0  0
  -10.7724  -23.3506   24.7866 N   0  0  0  0  0  0  0  0  0  0  0  0
  -13.3958  -26.3057   18.0808 C   0  0  0  0  0  0  0  0  0  0  0  0
  -14.6697  -26.6427   17.2350 C   0  0  0  0  0  0  0  0  0  0  0  0
  -15.0301  -27.9895   17.0516 C   0  0  0  0  0  0  0  0  0  0  0  0
  -15.8988  -28.3639   16.0202 C   0  0  0  0  0  0  0  0  0  0  0  0
  -16.4180  -27.3820   15.1970 C   0  0  0  0  0  0  0  0  0  0  0  0
  -16.1421  -26.0771   15.3512 N   0  0  0  0  0  0  0  0  0  0  0  0
  -15.2870  -25.7430   16.3554 C   0  0  0  0  0  0  0  0  0  0  0  0
  -12.1712  -26.5388   17.1702 N   0  0  0  0  0  0  0  0  0  0  0  0
  -12.4156  -26.5738   15.6883 C   0  0  0  0  0  0  0  0  0  0  0  0
  -11.1053  -26.6180   14.8894 C   0  0  0  0  0  0  0  0  0  0  0  0
  -10.4286  -27.8430   15.1835 O   0  0  0  0  0  0  0  0  0  0  0  0
  -10.1463  -27.9031   16.5835 C   0  0  0  0  0  0  0  0  0  0  0  0
  -11.4163  -27.7723   17.4638 C   0  0  0  0  0  0  0  0  0  0  0  0
  -12.2131  -25.2624   20.4051 H   0  0  0  0  0  0  0  0  0  0  0  0
  -11.0360  -22.7395   20.9117 H   0  0  0  0  0  0  0  0  0  0  0  0
  -12.2883  -22.1581   20.0631 H   0  0  0  0  0  0  0  0  0  0  0  0
  -12.0543  -21.1901   22.5355 H   0  0  0  0  0  0  0  0  0  0  0  0
  -13.2940  -22.5088   22.8939 H   0  0  0  0  0  0  0  0  0  0  0  0
  -12.1269  -21.1040   28.0959 H   0  0  0  0  0  0  0  0  0  0  0  0
  -11.5241  -22.7685   29.8244 H   0  0  0  0  0  0  0  0  0  0  0  0
  -10.7428  -25.0231   29.1539 H   0  0  0  0  0  0  0  0  0  0  0  0
  -10.4308  -25.5709   26.7455 H   0  0  0  0  0  0  0  0  0  0  0  0
   -9.9283  -23.7048   24.3712 H   0  0  0  0  0  0  0  0  0  0  0  0
  -13.3791  -26.9718   18.9424 H   0  0  0  0  0  0  0  0  0  0  0  0
  -14.5660  -28.7687   17.6505 H   0  0  0  0  0  0  0  0  0  0  0  0
  -16.1478  -29.4064   15.8539 H   0  0  0  0  0  0  0  0  0  0  0  0
  -17.0908  -27.6254   14.3804 H   0  0  0  0  0  0  0  0  0  0  0  0
  -15.0412  -24.6913   16.3347 H   0  0  0  0  0  0  0  0  0  0  0  0
  -12.9728  -27.4792   15.4179 H   0  0  0  0  0  0  0  0  0  0  0  0
  -12.9868  -25.7204   15.3250 H   0  0  0  0  0  0  0  0  0  0  0  0
  -10.4536  -25.7646   15.1079 H   0  0  0  0  0  0  0  0  0  0  0  0
  -11.3219  -26.6102   13.8165 H   0  0  0  0  0  0  0  0  0  0  0  0
   -9.4207  -27.1223   16.8098 H   0  0  0  0  0  0  0  0  0  0  0  0
   -9.6651  -28.8661   16.7826 H   0  0  0  0  0  0  0  0  0  0  0  0
  -11.0987  -27.8024   18.5059 H   0  0  0  0  0  0  0  0  0  0  0  0
  -12.0540  -28.6483   17.2924 H   0  0  0  0  0  0  0  0  0  0  0  0
  1  2  2  0
  2  3  1  0
  3  4  1  0
  4  5  1  0
  5  6  1  0
  6  7  2  0
  7  8  1  0
  8  9  2  0
  9 10  1  0
 10 11  2  0
 11 12  1  0
 12 13  2  0
 13 14  1  0
  2 15  1  0
 15 16  1  0
 16 17  2  0
 17 18  1  0
 18 19  2  0
 19 20  1  0
 20 21  2  0
 15 22  1  0
 22 23  1  0
 23 24  1  0
 24 25  1  0
 25 26  1  0
 26 27  1  0
 14  6  1  0
 21 16  1  0
 27 22  1  0
 13  8  1  0
  3 28  1  0
  4 29  1  0
  4 30  1  0
  5 31  1  0
  5 32  1  0
  9 33  1  0
 10 34  1  0
 11 35  1  0
 12 36  1  0
 14 37  1  0
 15 38  1  0
 17 39  1  0
 18 40  1  0
 19 41  1  0
 21 42  1  0
 23 43  1  0
 23 44  1  0
 24 45  1  0
 24 46  1  0
 26 47  1  0
 26 48  1  0
 27 49  1  0
 27 50  1  0
M  END
>  <Energy>  (887) 
326.72592630176882

>  <compound_id>  (887) 
16030

>  <target_id>  (887) 
1

>  <reference_id>  (887) 
52

>  <inspiration_ids>  (887) 
[52, 48]

>  <energy_score>  (887) 
147.37729008869906

>  <distance_score>  (887) 
6.807187312420896

>  <path>  (887) 
/opt/xchem-fragalysis-2/maxwin/BulkDock/SCRATCH/511017/C16030-P52/C16030-P52.minimised.mol

>  <scratch_subdir>  (887) 
/opt/xchem-fragalysis-2/maxwin/BulkDock/SCRATCH/511017/C16030-P52

>  <fragmenstein_runtime>  (887) 
14.183028936386108

>  <fragmenstein_outcome>  (887) 
too moved

>  <fragmenstein_mode>  (887) 
expansion

>  <fragmenstein_error>  (887) 


$$$$
C16030-P48
     RDKit          3D

 50 53  0  0  0  0  0  0  0  0999 V2000
  -13.5929  -27.1954   19.2487 O   0  0  0  0  0  0  0  0  0  0  0  0
  -13.7851  -26.1527   18.6843 C   0  0  0  0  0  0  0  0  0  0  0  0
  -13.4576  -24.7517   19.0886 N   0  0  0  0  0  0  0  0  0  0  0  0
  -12.5633  -24.1212   20.4736 C   0  0  0  0  0  0  0  0  0  0  0  0
  -12.3809  -22.6491   21.6728 C   0  0  0  0  0  0  0  0  0  0  0  0
  -13.0164  -22.5686   23.2460 C   0  0  0  0  0  0  0  0  0  0  0  0
  -13.9070  -23.3913   23.7901 N   0  0  0  0  0  0  0  0  0  0  0  0
  -13.4673  -23.6816   25.0622 C   0  0  0  0  0  0  0  0  0  0  0  0
  -13.5004  -24.9121   25.7670 C   0  0  0  0  0  0  0  0  0  0  0  0
  -12.6564  -25.0978   26.8822 C   0  0  0  0  0  0  0  0  0  0  0  0
  -11.9573  -24.0163   27.3991 C   0  0  0  0  0  0  0  0  0  0  0  0
  -11.9832  -22.7782   26.7447 C   0  0  0  0  0  0  0  0  0  0  0  0
  -12.5719  -22.7179   25.4649 C   0  0  0  0  0  0  0  0  0  0  0  0
  -12.4508  -21.8884   24.3287 N   0  0  0  0  0  0  0  0  0  0  0  0
  -14.4030  -26.0790   17.1634 C   0  0  0  0  0  0  0  0  0  0  0  0
  -15.1607  -27.2568   16.5531 C   0  0  0  0  0  0  0  0  0  0  0  0
  -14.6608  -28.5588   16.4859 C   0  0  0  0  0  0  0  0  0  0  0  0
  -15.1568  -29.4460   15.5274 C   0  0  0  0  0  0  0  0  0  0  0  0
  -16.1701  -29.0204   14.6842 C   0  0  0  0  0  0  0  0  0  0  0  0
  -16.7366  -27.8015   14.7623 N   0  0  0  0  0  0  0  0  0  0  0  0
  -16.2375  -26.9640   15.7007 C   0  0  0  0  0  0  0  0  0  0  0  0
  -13.2956  -25.6570   16.2058 N   0  0  0  0  0  0  0  0  0  0  0  0
  -13.7088  -25.4644   14.7938 C   0  0  0  0  0  0  0  0  0  0  0  0
  -12.5971  -24.9143   13.8604 C   0  0  0  0  0  0  0  0  0  0  0  0
  -11.2767  -25.0860   14.3823 O   0  0  0  0  0  0  0  0  0  0  0  0
  -11.1430  -26.3561   15.0130 C   0  0  0  0  0  0  0  0  0  0  0  0
  -12.0774  -26.4992   16.2381 C   0  0  0  0  0  0  0  0  0  0  0  0
  -13.6908  -24.1194   18.3231 H   0  0  0  0  0  0  0  0  0  0  0  0
  -12.6004  -23.2187   19.8892 H   0  0  0  0  0  0  0  0  0  0  0  0
  -11.6026  -24.6014   20.4740 H   0  0  0  0  0  0  0  0  0  0  0  0
  -11.3334  -22.6357   21.9389 H   0  0  0  0  0  0  0  0  0  0  0  0
  -12.2532  -21.7145   21.1509 H   0  0  0  0  0  0  0  0  0  0  0  0
  -14.0979  -25.7252   25.3679 H   0  0  0  0  0  0  0  0  0  0  0  0
  -12.6175  -26.0586   27.3883 H   0  0  0  0  0  0  0  0  0  0  0  0
  -11.4062  -24.1131   28.3316 H   0  0  0  0  0  0  0  0  0  0  0  0
  -11.4678  -21.9327   27.1803 H   0  0  0  0  0  0  0  0  0  0  0  0
  -11.8241  -21.1019   24.2461 H   0  0  0  0  0  0  0  0  0  0  0  0
  -15.1143  -25.2413   17.2160 H   0  0  0  0  0  0  0  0  0  0  0  0
  -13.8394  -28.8724   17.1254 H   0  0  0  0  0  0  0  0  0  0  0  0
  -14.7508  -30.4477   15.4365 H   0  0  0  0  0  0  0  0  0  0  0  0
  -16.5772  -29.6760   13.9199 H   0  0  0  0  0  0  0  0  0  0  0  0
  -16.6859  -25.9724   15.6810 H   0  0  0  0  0  0  0  0  0  0  0  0
  -14.0156  -26.4193   14.3520 H   0  0  0  0  0  0  0  0  0  0  0  0
  -14.5685  -24.7867   14.7336 H   0  0  0  0  0  0  0  0  0  0  0  0
  -12.7425  -23.8459   13.6795 H   0  0  0  0  0  0  0  0  0  0  0  0
  -12.6504  -25.4109   12.8843 H   0  0  0  0  0  0  0  0  0  0  0  0
  -10.1002  -26.4739   15.3255 H   0  0  0  0  0  0  0  0  0  0  0  0
  -11.3554  -27.1397   14.2750 H   0  0  0  0  0  0  0  0  0  0  0  0
  -11.5073  -26.2452   17.1326 H   0  0  0  0  0  0  0  0  0  0  0  0
  -12.2951  -27.5639   16.3332 H   0  0  0  0  0  0  0  0  0  0  0  0
  1  2  2  0
  2  3  1  0
  3  4  1  0
  4  5  1  0
  5  6  1  0
  6  7  2  0
  7  8  1  0
  8  9  2  0
  9 10  1  0
 10 11  2  0
 11 12  1  0
 12 13  2  0
 13 14  1  0
  2 15  1  0
 15 16  1  0
 16 17  2  0
 17 18  1  0
 18 19  2  0
 19 20  1  0
 20 21  2  0
 15 22  1  0
 22 23  1  0
 23 24  1  0
 24 25  1  0
 25 26  1  0
 26 27  1  0
 14  6  1  0
 21 16  1  0
 27 22  1  0
 13  8  1  0
  3 28  1  0
  4 29  1  0
  4 30  1  0
  5 31  1  0
  5 32  1  0
  9 33  1  0
 10 34  1  0
 11 35  1  0
 12 36  1  0
 14 37  1  0
 15 38  1  0
 17 39  1  0
 18 40  1  0
 19 41  1  0
 21 42  1  0
 23 43  1  0
 23 44  1  0
 24 45  1  0
 24 46  1  0
 26 47  1  0
 26 48  1  0
 27 49  1  0
 27 50  1  0
M  END
>  <Energy>  (888) 
326.30333121859962

>  <compound_id>  (888) 
16030

>  <target_id>  (888) 
1

>  <reference_id>  (888) 
48

>  <inspiration_ids>  (888) 
[52, 48]

>  <energy_score>  (888) 
146.95469500553156

>  <distance_score>  (888) 
6.9484901630397315

>  <path>  (888) 
/opt/xchem-fragalysis-2/maxwin/BulkDock/SCRATCH/511017/C16030-P48/C16030-P48.minimised.mol

>  <scratch_subdir>  (888) 
/opt/xchem-fragalysis-2/maxwin/BulkDock/SCRATCH/511017/C16030-P48

>  <fragmenstein_runtime>  (888) 
9.63402533531189

>  <fragmenstein_outcome>  (888) 
too moved

>  <fragmenstein_mode>  (888) 
expansion

>  <fragmenstein_error>  (888) 


$$$$
C16031-P52
     RDKit          3D

 37 39  0  0  0  0  0  0  0  0999 V2000
  -13.5377  -26.5217   18.7424 O   0  0  0  0  0  0  0  0  0  0  0  0
  -13.8421  -25.1282   17.9738 C   0  0  0  0  0  0  0  0  0  0  0  0
  -14.6690  -25.3911   16.7394 C   0  0  0  0  0  0  0  0  0  0  0  0
  -14.0055  -25.7495   15.4253 C   0  0  0  0  0  0  0  0  0  0  0  0
  -14.5210  -25.2640   14.2132 C   0  0  0  0  0  0  0  0  0  0  0  0
  -13.9388  -25.6225   12.9978 C   0  0  0  0  0  0  0  0  0  0  0  0
  -12.8461  -26.4644   13.0219 C   0  0  0  0  0  0  0  0  0  0  0  0
  -12.3356  -26.9764   14.1589 N   0  0  0  0  0  0  0  0  0  0  0  0
  -12.9304  -26.6258   15.3269 C   0  0  0  0  0  0  0  0  0  0  0  0
  -13.3886  -24.3895   18.6391 N   0  0  0  0  0  0  0  0  0  0  0  0
  -12.6262  -24.2034   20.1375 C   0  0  0  0  0  0  0  0  0  0  0  0
  -12.2401  -22.5724   21.1249 C   0  0  0  0  0  0  0  0  0  0  0  0
  -12.2238  -22.3446   22.9946 C   0  0  0  0  0  0  0  0  0  0  0  0
  -11.2207  -22.3143   23.8743 N   0  0  0  0  0  0  0  0  0  0  0  0
  -11.6963  -22.8264   25.1318 C   0  0  0  0  0  0  0  0  0  0  0  0
  -11.0348  -23.2626   26.3084 C   0  0  0  0  0  0  0  0  0  0  0  0
  -11.7018  -24.0454   27.2572 C   0  0  0  0  0  0  0  0  0  0  0  0
  -10.8663  -24.6016   28.6551 Cl  0  0  0  0  0  0  0  0  0  0  0  0
  -13.0068  -24.4548   27.0348 C   0  0  0  0  0  0  0  0  0  0  0  0
  -13.6978  -24.0237   25.8929 C   0  0  0  0  0  0  0  0  0  0  0  0
  -13.0312  -23.1534   25.0141 C   0  0  0  0  0  0  0  0  0  0  0  0
  -13.3772  -22.6413   23.7772 N   0  0  0  0  0  0  0  0  0  0  0  0
  -15.3255  -24.5345   16.5969 H   0  0  0  0  0  0  0  0  0  0  0  0
  -15.3505  -26.2155   16.9902 H   0  0  0  0  0  0  0  0  0  0  0  0
  -15.3866  -24.6055   14.2075 H   0  0  0  0  0  0  0  0  0  0  0  0
  -14.3342  -25.2587   12.0572 H   0  0  0  0  0  0  0  0  0  0  0  0
  -12.3451  -26.7706   12.1086 H   0  0  0  0  0  0  0  0  0  0  0  0
  -12.4901  -27.0842   16.2112 H   0  0  0  0  0  0  0  0  0  0  0  0
  -13.0831  -23.4819   18.8973 H   0  0  0  0  0  0  0  0  0  0  0  0
  -11.7057  -24.7395   20.1782 H   0  0  0  0  0  0  0  0  0  0  0  0
  -13.3086  -24.8480   20.7221 H   0  0  0  0  0  0  0  0  0  0  0  0
  -11.1649  -22.5228   21.1283 H   0  0  0  0  0  0  0  0  0  0  0  0
  -13.1155  -22.9041   21.6170 H   0  0  0  0  0  0  0  0  0  0  0  0
   -9.9805  -23.0906   26.4501 H   0  0  0  0  0  0  0  0  0  0  0  0
  -13.5099  -25.1011   27.7496 H   0  0  0  0  0  0  0  0  0  0  0  0
  -14.7219  -24.3368   25.7162 H   0  0  0  0  0  0  0  0  0  0  0  0
  -14.2040  -22.9672   23.3274 H   0  0  0  0  0  0  0  0  0  0  0  0
  1  2  2  0
  2  3  1  0
  3  4  1  0
  4  5  2  0
  5  6  1  0
  6  7  2  0
  7  8  1  0
  8  9  2  0
  2 10  1  0
 10 11  1  0
 11 12  1  0
 12 13  1  0
 13 14  2  0
 14 15  1  0
 15 16  2  0
 16 17  1  0
 17 18  1  0
 17 19  2  0
 19 20  1  0
 20 21  2  0
 21 22  1  0
  9  4  1  0
 22 13  1  0
 21 15  1  0
  3 23  1  0
  3 24  1  0
  5 25  1  0
  6 26  1  0
  7 27  1  0
  9 28  1  0
 10 29  1  0
 11 30  1  0
 11 31  1  0
 12 32  1  0
 12 33  1  0
 16 34  1  0
 19 35  1  0
 20 36  1  0
 22 37  1  0
M  END
>  <Energy>  (889) 
394.37813035517593

>  <compound_id>  (889) 
16031

>  <target_id>  (889) 
1

>  <reference_id>  (889) 
52

>  <inspiration_ids>  (889) 
[52, 48]

>  <energy_score>  (889) 
353.75182372621293

>  <distance_score>  (889) 
7.028327401785945

>  <path>  (889) 
/opt/xchem-fragalysis-2/maxwin/BulkDock/SCRATCH/511017/C16031-P52/C16031-P52.minimised.mol

>  <scratch_subdir>  (889) 
/opt/xchem-fragalysis-2/maxwin/BulkDock/SCRATCH/511017/C16031-P52

>  <fragmenstein_runtime>  (889) 
8.8992018699646

>  <fragmenstein_outcome>  (889) 
too moved

>  <fragmenstein_mode>  (889) 
expansion

>  <fragmenstein_error>  (889) 


$$$$
C16031-P48
     RDKit          3D

 37 39  0  0  0  0  0  0  0  0999 V2000
  -13.5430  -25.7147   20.2351 O   0  0  0  0  0  0  0  0  0  0  0  0
  -13.2945  -24.6602   19.7019 C   0  0  0  0  0  0  0  0  0  0  0  0
  -13.7853  -24.7085   18.0774 C   0  0  0  0  0  0  0  0  0  0  0  0
  -13.3787  -25.7278   17.0016 C   0  0  0  0  0  0  0  0  0  0  0  0
  -12.3432  -26.6477   17.0866 C   0  0  0  0  0  0  0  0  0  0  0  0
  -11.9442  -27.3537   15.9463 C   0  0  0  0  0  0  0  0  0  0  0  0
  -12.6184  -27.1462   14.7522 C   0  0  0  0  0  0  0  0  0  0  0  0
  -13.6660  -26.3111   14.6306 N   0  0  0  0  0  0  0  0  0  0  0  0
  -14.0205  -25.6373   15.7492 C   0  0  0  0  0  0  0  0  0  0  0  0
  -12.6596  -23.1423   20.3906 N   0  0  0  0  0  0  0  0  0  0  0  0
  -12.3203  -22.6744   22.0530 C   0  0  0  0  0  0  0  0  0  0  0  0
  -13.2897  -22.5436   23.5047 C   0  0  0  0  0  0  0  0  0  0  0  0
  -13.0509  -23.2135   24.9079 C   0  0  0  0  0  0  0  0  0  0  0  0
  -13.4415  -24.4257   25.3160 N   0  0  0  0  0  0  0  0  0  0  0  0
  -12.7152  -24.6991   26.4676 C   0  0  0  0  0  0  0  0  0  0  0  0
  -12.5893  -25.8912   27.2009 C   0  0  0  0  0  0  0  0  0  0  0  0
  -11.9075  -25.8543   28.4200 C   0  0  0  0  0  0  0  0  0  0  0  0
  -11.7840  -27.2963   29.3523 Cl  0  0  0  0  0  0  0  0  0  0  0  0
  -11.3528  -24.6716   28.8970 C   0  0  0  0  0  0  0  0  0  0  0  0
  -11.4189  -23.4886   28.1453 C   0  0  0  0  0  0  0  0  0  0  0  0
  -12.1004  -23.5518   26.9271 C   0  0  0  0  0  0  0  0  0  0  0  0
  -12.4127  -22.6119   25.9744 N   0  0  0  0  0  0  0  0  0  0  0  0
  -14.8583  -24.9153   18.1472 H   0  0  0  0  0  0  0  0  0  0  0  0
  -13.7619  -23.7325   17.6488 H   0  0  0  0  0  0  0  0  0  0  0  0
  -11.8146  -26.7960   18.0218 H   0  0  0  0  0  0  0  0  0  0  0  0
  -11.1073  -28.0423   15.9889 H   0  0  0  0  0  0  0  0  0  0  0  0
  -12.3274  -27.6678   13.8454 H   0  0  0  0  0  0  0  0  0  0  0  0
  -14.8497  -24.9477   15.5994 H   0  0  0  0  0  0  0  0  0  0  0  0
  -12.6402  -22.4024   19.6786 H   0  0  0  0  0  0  0  0  0  0  0  0
  -12.2540  -21.6067   21.8213 H   0  0  0  0  0  0  0  0  0  0  0  0
  -11.2748  -22.6631   22.2945 H   0  0  0  0  0  0  0  0  0  0  0  0
  -14.3214  -22.7933   23.3373 H   0  0  0  0  0  0  0  0  0  0  0  0
  -13.2230  -21.4883   23.7587 H   0  0  0  0  0  0  0  0  0  0  0  0
  -13.0558  -26.8012   26.8425 H   0  0  0  0  0  0  0  0  0  0  0  0
  -10.8807  -24.6638   29.8748 H   0  0  0  0  0  0  0  0  0  0  0  0
  -11.0168  -22.5527   28.5146 H   0  0  0  0  0  0  0  0  0  0  0  0
  -12.2509  -21.6189   26.0523 H   0  0  0  0  0  0  0  0  0  0  0  0
  1  2  2  0
  2  3  1  0
  3  4  1  0
  4  5  2  0
  5  6  1  0
  6  7  2  0
  7  8  1  0
  8  9  2  0
  2 10  1  0
 10 11  1  0
 11 12  1  0
 12 13  1  0
 13 14  2  0
 14 15  1  0
 15 16  2  0
 16 17  1  0
 17 18  1  0
 17 19  2  0
 19 20  1  0
 20 21  2  0
 21 22  1  0
  9  4  1  0
 22 13  1  0
 21 15  1  0
  3 23  1  0
  3 24  1  0
  5 25  1  0
  6 26  1  0
  7 27  1  0
  9 28  1  0
 10 29  1  0
 11 30  1  0
 11 31  1  0
 12 32  1  0
 12 33  1  0
 16 34  1  0
 19 35  1  0
 20 36  1  0
 22 37  1  0
M  END
>  <Energy>  (890) 
183.32274956720417

>  <compound_id>  (890) 
16031

>  <target_id>  (890) 
1

>  <reference_id>  (890) 
48

>  <inspiration_ids>  (890) 
[52, 48]

>  <energy_score>  (890) 
142.69644293824706

>  <distance_score>  (890) 
6.657174113825942

>  <path>  (890) 
/opt/xchem-fragalysis-2/maxwin/BulkDock/SCRATCH/511017/C16031-P48/C16031-P48.minimised.mol

>  <scratch_subdir>  (890) 
/opt/xchem-fragalysis-2/maxwin/BulkDock/SCRATCH/511017/C16031-P48

>  <fragmenstein_runtime>  (890) 
4.1795666217803955

>  <fragmenstein_outcome>  (890) 
too moved

>  <fragmenstein_mode>  (890) 
expansion

>  <fragmenstein_error>  (890) 


$$$$
C16032-P52
     RDKit          3D

 42 44  0  0  0  0  0  0  0  0999 V2000
   -8.0184  -22.5752   14.1354 O   0  0  0  0  0  0  0  0  0  0  0  0
   -8.9290  -22.9804   14.7877 C   0  0  0  0  0  0  0  0  0  0  0  0
   -9.3993  -22.0525   16.3019 C   0  0  0  0  0  0  0  0  0  0  0  0
   -8.8779  -21.0302   17.6914 O   0  0  0  0  0  0  0  0  0  0  0  0
   -9.1413  -21.0941   19.5304 C   0  0  0  0  0  0  0  0  0  0  0  0
  -10.4873  -21.4827   20.8582 C   0  0  0  0  0  0  0  0  0  0  0  0
  -11.5162  -21.7386   20.3278 O   0  0  0  0  0  0  0  0  0  0  0  0
  -10.1254  -21.5248   22.2425 N   0  0  0  0  0  0  0  0  0  0  0  0
  -10.8404  -21.9684   23.3680 C   0  0  0  0  0  0  0  0  0  0  0  0
  -10.3344  -22.7659   24.3080 N   0  0  0  0  0  0  0  0  0  0  0  0
  -11.2935  -23.0568   25.2546 C   0  0  0  0  0  0  0  0  0  0  0  0
  -11.1956  -23.7836   26.4544 C   0  0  0  0  0  0  0  0  0  0  0  0
  -12.3436  -24.3848   26.9594 C   0  0  0  0  0  0  0  0  0  0  0  0
  -13.5523  -24.2070   26.2941 C   0  0  0  0  0  0  0  0  0  0  0  0
  -13.6840  -23.2914   25.2237 C   0  0  0  0  0  0  0  0  0  0  0  0
  -12.5177  -22.6995   24.7312 C   0  0  0  0  0  0  0  0  0  0  0  0
  -12.2069  -21.9564   23.5878 N   0  0  0  0  0  0  0  0  0  0  0  0
   -9.7763  -24.1446   14.6011 N   0  0  0  0  0  0  0  0  0  0  0  0
   -9.7174  -25.2166   13.6292 C   0  0  0  0  0  0  0  0  0  0  0  0
  -10.4877  -25.0982   12.3414 C   0  0  0  0  0  0  0  0  0  0  0  0
  -11.4677  -26.0422   12.0001 C   0  0  0  0  0  0  0  0  0  0  0  0
  -11.9945  -26.0799   10.7090 C   0  0  0  0  0  0  0  0  0  0  0  0
  -11.5273  -25.1640    9.7855 C   0  0  0  0  0  0  0  0  0  0  0  0
  -10.6114  -24.2177   10.0770 N   0  0  0  0  0  0  0  0  0  0  0  0
  -10.1085  -24.2056   11.3440 C   0  0  0  0  0  0  0  0  0  0  0  0
   -9.9602  -21.3529   15.7137 H   0  0  0  0  0  0  0  0  0  0  0  0
   -9.6541  -22.9715   16.6840 H   0  0  0  0  0  0  0  0  0  0  0  0
   -9.5119  -22.0502   19.3005 H   0  0  0  0  0  0  0  0  0  0  0  0
   -9.2374  -20.0671   19.3487 H   0  0  0  0  0  0  0  0  0  0  0  0
   -9.1522  -21.3264   22.3290 H   0  0  0  0  0  0  0  0  0  0  0  0
  -10.2370  -23.9516   26.9206 H   0  0  0  0  0  0  0  0  0  0  0  0
  -12.2870  -25.0144   27.8423 H   0  0  0  0  0  0  0  0  0  0  0  0
  -14.4435  -24.7124   26.6643 H   0  0  0  0  0  0  0  0  0  0  0  0
  -14.6495  -23.0808   24.7861 H   0  0  0  0  0  0  0  0  0  0  0  0
  -12.8615  -21.7091   22.8774 H   0  0  0  0  0  0  0  0  0  0  0  0
  -10.4888  -24.1386   15.2870 H   0  0  0  0  0  0  0  0  0  0  0  0
   -8.6847  -25.4054   13.3418 H   0  0  0  0  0  0  0  0  0  0  0  0
  -10.0475  -26.1109   14.1713 H   0  0  0  0  0  0  0  0  0  0  0  0
  -11.7885  -26.7881   12.7236 H   0  0  0  0  0  0  0  0  0  0  0  0
  -12.7340  -26.8213   10.4285 H   0  0  0  0  0  0  0  0  0  0  0  0
  -11.8914  -25.1605    8.7629 H   0  0  0  0  0  0  0  0  0  0  0  0
   -9.3374  -23.4554   11.5246 H   0  0  0  0  0  0  0  0  0  0  0  0
  1  2  2  0
  2  3  1  0
  3  4  1  0
  4  5  1  0
  5  6  1  0
  6  7  2  0
  6  8  1  0
  8  9  1  0
  9 10  2  0
 10 11  1  0
 11 12  2  0
 12 13  1  0
 13 14  2  0
 14 15  1  0
 15 16  2  0
 16 17  1  0
  2 18  1  0
 18 19  1  0
 19 20  1  0
 20 21  2  0
 21 22  1  0
 22 23  2  0
 23 24  1  0
 24 25  2  0
 17  9  1  0
 25 20  1  0
 16 11  1  0
  3 26  1  0
  3 27  1  0
  5 28  1  0
  5 29  1  0
  8 30  1  0
 12 31  1  0
 13 32  1  0
 14 33  1  0
 15 34  1  0
 17 35  1  0
 18 36  1  0
 19 37  1  0
 19 38  1  0
 21 39  1  0
 22 40  1  0
 23 41  1  0
 25 42  1  0
M  END
>  <Energy>  (891) 
321.04146337014902

>  <compound_id>  (891) 
16032

>  <target_id>  (891) 
1

>  <reference_id>  (891) 
52

>  <inspiration_ids>  (891) 
[52, 48]

>  <energy_score>  (891) 
241.12524632061445

>  <distance_score>  (891) 
5.690362872135229

>  <path>  (891) 
/opt/xchem-fragalysis-2/maxwin/BulkDock/SCRATCH/511017/C16032-P52/C16032-P52.minimised.mol

>  <scratch_subdir>  (891) 
/opt/xchem-fragalysis-2/maxwin/BulkDock/SCRATCH/511017/C16032-P52

>  <fragmenstein_runtime>  (891) 
10.565490484237671

>  <fragmenstein_outcome>  (891) 
too moved

>  <fragmenstein_mode>  (891) 
expansion

>  <fragmenstein_error>  (891) 


$$$$
C16032-P48
     RDKit          3D

 42 44  0  0  0  0  0  0  0  0999 V2000
   -8.1997  -22.0677   14.7572 O   0  0  0  0  0  0  0  0  0  0  0  0
   -9.0904  -22.3383   15.5081 C   0  0  0  0  0  0  0  0  0  0  0  0
   -9.1119  -21.2025   17.2477 C   0  0  0  0  0  0  0  0  0  0  0  0
   -9.0581  -20.8818   19.0300 O   0  0  0  0  0  0  0  0  0  0  0  0
   -9.9682  -21.3980   20.5309 C   0  0  0  0  0  0  0  0  0  0  0  0
  -11.4123  -21.9488   21.5563 C   0  0  0  0  0  0  0  0  0  0  0  0
  -12.1493  -22.7214   21.0112 O   0  0  0  0  0  0  0  0  0  0  0  0
  -11.4286  -21.4278   22.9068 N   0  0  0  0  0  0  0  0  0  0  0  0
  -12.2494  -21.7379   24.0045 C   0  0  0  0  0  0  0  0  0  0  0  0
  -12.1018  -21.3014   25.2374 N   0  0  0  0  0  0  0  0  0  0  0  0
  -12.3136  -22.4174   26.0635 C   0  0  0  0  0  0  0  0  0  0  0  0
  -11.8168  -22.7382   27.3453 C   0  0  0  0  0  0  0  0  0  0  0  0
  -11.8614  -24.0710   27.7716 C   0  0  0  0  0  0  0  0  0  0  0  0
  -12.5426  -25.0218   27.0149 C   0  0  0  0  0  0  0  0  0  0  0  0
  -13.2406  -24.6565   25.8430 C   0  0  0  0  0  0  0  0  0  0  0  0
  -13.0388  -23.3486   25.3558 C   0  0  0  0  0  0  0  0  0  0  0  0
  -13.2348  -22.7113   24.1110 N   0  0  0  0  0  0  0  0  0  0  0  0
  -10.0547  -23.3638   15.4281 N   0  0  0  0  0  0  0  0  0  0  0  0
  -10.2204  -24.4667   14.4810 C   0  0  0  0  0  0  0  0  0  0  0  0
  -10.7659  -24.4020   13.0795 C   0  0  0  0  0  0  0  0  0  0  0  0
  -10.1083  -25.1149   12.0595 C   0  0  0  0  0  0  0  0  0  0  0  0
  -10.7472  -25.3951   10.8517 C   0  0  0  0  0  0  0  0  0  0  0  0
  -12.0328  -24.9254   10.6712 C   0  0  0  0  0  0  0  0  0  0  0  0
  -12.6977  -24.2199   11.6078 N   0  0  0  0  0  0  0  0  0  0  0  0
  -12.0521  -23.9793   12.7819 C   0  0  0  0  0  0  0  0  0  0  0  0
   -9.4535  -20.2374   16.9407 H   0  0  0  0  0  0  0  0  0  0  0  0
   -8.0372  -20.9395   17.3932 H   0  0  0  0  0  0  0  0  0  0  0  0
  -10.7710  -20.6965   20.3470 H   0  0  0  0  0  0  0  0  0  0  0  0
  -10.0193  -22.3655   20.1684 H   0  0  0  0  0  0  0  0  0  0  0  0
  -10.6082  -20.8607   23.0497 H   0  0  0  0  0  0  0  0  0  0  0  0
  -11.2990  -21.9899   27.9315 H   0  0  0  0  0  0  0  0  0  0  0  0
  -11.3957  -24.3447   28.7142 H   0  0  0  0  0  0  0  0  0  0  0  0
  -12.5826  -26.0486   27.3721 H   0  0  0  0  0  0  0  0  0  0  0  0
  -13.8049  -25.3860   25.2716 H   0  0  0  0  0  0  0  0  0  0  0  0
  -13.6375  -23.1507   23.3083 H   0  0  0  0  0  0  0  0  0  0  0  0
  -10.5731  -23.3571   16.2269 H   0  0  0  0  0  0  0  0  0  0  0  0
  -10.9005  -25.1551   15.0050 H   0  0  0  0  0  0  0  0  0  0  0  0
   -9.2963  -25.0270   14.4569 H   0  0  0  0  0  0  0  0  0  0  0  0
   -9.1103  -25.5174   12.2276 H   0  0  0  0  0  0  0  0  0  0  0  0
  -10.2497  -25.9667   10.0750 H   0  0  0  0  0  0  0  0  0  0  0  0
  -12.5744  -25.1063    9.7476 H   0  0  0  0  0  0  0  0  0  0  0  0
  -12.6665  -23.4823   13.5207 H   0  0  0  0  0  0  0  0  0  0  0  0
  1  2  2  0
  2  3  1  0
  3  4  1  0
  4  5  1  0
  5  6  1  0
  6  7  2  0
  6  8  1  0
  8  9  1  0
  9 10  2  0
 10 11  1  0
 11 12  2  0
 12 13  1  0
 13 14  2  0
 14 15  1  0
 15 16  2  0
 16 17  1  0
  2 18  1  0
 18 19  1  0
 19 20  1  0
 20 21  2  0
 21 22  1  0
 22 23  2  0
 23 24  1  0
 24 25  2  0
 17  9  1  0
 25 20  1  0
 16 11  1  0
  3 26  1  0
  3 27  1  0
  5 28  1  0
  5 29  1  0
  8 30  1  0
 12 31  1  0
 13 32  1  0
 14 33  1  0
 15 34  1  0
 17 35  1  0
 18 36  1  0
 19 37  1  0
 19 38  1  0
 21 39  1  0
 22 40  1  0
 23 41  1  0
 25 42  1  0
M  END
>  <Energy>  (892) 
364.39013224204717

>  <compound_id>  (892) 
16032

>  <target_id>  (892) 
1

>  <reference_id>  (892) 
48

>  <inspiration_ids>  (892) 
[52, 48]

>  <energy_score>  (892) 
284.4739151925077

>  <distance_score>  (892) 
5.572921280265994

>  <path>  (892) 
/opt/xchem-fragalysis-2/maxwin/BulkDock/SCRATCH/511017/C16032-P48/C16032-P48.minimised.mol

>  <scratch_subdir>  (892) 
/opt/xchem-fragalysis-2/maxwin/BulkDock/SCRATCH/511017/C16032-P48

>  <fragmenstein_runtime>  (892) 
7.501979112625122

>  <fragmenstein_outcome>  (892) 
too moved

>  <fragmenstein_mode>  (892) 
expansion

>  <fragmenstein_error>  (892) 


$$$$
C16033-P52
     RDKit          3D

 48 50  0  0  0  0  0  0  0  0999 V2000
  -14.4796  -24.7349   25.4232 C   0  0  0  0  0  0  0  0  0  0  0  0
  -13.9689  -23.4316   24.8186 C   0  0  0  0  0  0  0  0  0  0  0  0
  -12.5961  -23.0904   25.0840 N   0  0  0  0  0  0  0  0  0  0  0  0
  -11.9588  -22.0015   24.4571 C   0  0  0  0  0  0  0  0  0  0  0  0
  -11.5909  -21.8395   23.0365 N   0  0  0  0  0  0  0  0  0  0  0  0
  -10.2622  -21.4983   22.3922 C   0  0  0  0  0  0  0  0  0  0  0  0
   -9.1802  -21.3557   22.8808 O   0  0  0  0  0  0  0  0  0  0  0  0
  -10.1447  -21.3869   20.5709 C   0  0  0  0  0  0  0  0  0  0  0  0
   -9.0738  -20.7874   19.3164 O   0  0  0  0  0  0  0  0  0  0  0  0
   -8.9051  -21.1338   17.5219 C   0  0  0  0  0  0  0  0  0  0  0  0
   -9.4710  -22.0650   15.7801 C   0  0  0  0  0  0  0  0  0  0  0  0
  -10.1151  -21.3222   15.1132 O   0  0  0  0  0  0  0  0  0  0  0  0
   -9.1581  -23.4371   15.5830 N   0  0  0  0  0  0  0  0  0  0  0  0
   -9.6081  -24.3986   14.5597 C   0  0  0  0  0  0  0  0  0  0  0  0
   -9.4761  -24.4359   13.0652 C   0  0  0  0  0  0  0  0  0  0  0  0
   -9.3289  -25.6968   12.4411 C   0  0  0  0  0  0  0  0  0  0  0  0
   -9.5188  -25.8605   11.0710 C   0  0  0  0  0  0  0  0  0  0  0  0
   -9.8663  -24.7482   10.3418 C   0  0  0  0  0  0  0  0  0  0  0  0
   -9.9946  -23.5253   10.8883 N   0  0  0  0  0  0  0  0  0  0  0  0
   -9.7939  -23.3880   12.2313 C   0  0  0  0  0  0  0  0  0  0  0  0
  -11.7810  -21.2175   25.5229 N   0  0  0  0  0  0  0  0  0  0  0  0
  -11.6919  -22.0217   26.6738 C   0  0  0  0  0  0  0  0  0  0  0  0
  -11.3223  -21.7640   28.0102 C   0  0  0  0  0  0  0  0  0  0  0  0
  -11.2374  -22.8218   28.9287 C   0  0  0  0  0  0  0  0  0  0  0  0
  -11.5173  -24.1244   28.5286 C   0  0  0  0  0  0  0  0  0  0  0  0
  -11.9349  -24.3957   27.2195 C   0  0  0  0  0  0  0  0  0  0  0  0
  -12.0242  -23.3104   26.3298 C   0  0  0  0  0  0  0  0  0  0  0  0
  -15.5077  -24.9359   25.1087 H   0  0  0  0  0  0  0  0  0  0  0  0
  -14.5039  -24.6978   26.5152 H   0  0  0  0  0  0  0  0  0  0  0  0
  -13.8623  -25.5851   25.1191 H   0  0  0  0  0  0  0  0  0  0  0  0
  -14.6108  -22.6042   25.1204 H   0  0  0  0  0  0  0  0  0  0  0  0
  -13.9823  -23.4345   23.7414 H   0  0  0  0  0  0  0  0  0  0  0  0
  -12.2856  -21.9646   22.3188 H   0  0  0  0  0  0  0  0  0  0  0  0
  -10.0066  -22.4105   20.3958 H   0  0  0  0  0  0  0  0  0  0  0  0
  -11.1446  -21.0343   20.3420 H   0  0  0  0  0  0  0  0  0  0  0  0
   -9.3580  -21.9597   17.9024 H   0  0  0  0  0  0  0  0  0  0  0  0
   -9.3603  -20.1789   17.3701 H   0  0  0  0  0  0  0  0  0  0  0  0
   -8.5232  -23.7271   16.2929 H   0  0  0  0  0  0  0  0  0  0  0  0
  -10.6881  -24.4657   14.6882 H   0  0  0  0  0  0  0  0  0  0  0  0
   -9.2644  -25.3650   14.9484 H   0  0  0  0  0  0  0  0  0  0  0  0
   -9.1119  -26.5791   13.0411 H   0  0  0  0  0  0  0  0  0  0  0  0
   -9.4204  -26.8314   10.6008 H   0  0  0  0  0  0  0  0  0  0  0  0
  -10.0421  -24.8016    9.2730 H   0  0  0  0  0  0  0  0  0  0  0  0
   -9.9708  -22.3914   12.6265 H   0  0  0  0  0  0  0  0  0  0  0  0
  -11.0636  -20.7625   28.3237 H   0  0  0  0  0  0  0  0  0  0  0  0
  -10.9352  -22.6179   29.9532 H   0  0  0  0  0  0  0  0  0  0  0  0
  -11.4327  -24.9348   29.2488 H   0  0  0  0  0  0  0  0  0  0  0  0
  -12.2025  -25.4040   26.9257 H   0  0  0  0  0  0  0  0  0  0  0  0
  1  2  1  0
  2  3  1  0
  3  4  1  0
  4  5  1  0
  5  6  1  0
  6  7  2  0
  6  8  1  0
  8  9  1  0
  9 10  1  0
 10 11  1  0
 11 12  2  0
 11 13  1  0
 13 14  1  0
 14 15  1  0
 15 16  2  0
 16 17  1  0
 17 18  2  0
 18 19  1  0
 19 20  2  0
  4 21  2  0
 21 22  1  0
 22 23  2  0
 23 24  1  0
 24 25  2  0
 25 26  1  0
 26 27  2  0
 27  3  1  0
 20 15  1  0
 27 22  1  0
  1 28  1  0
  1 29  1  0
  1 30  1  0
  2 31  1  0
  2 32  1  0
  5 33  1  0
  8 34  1  0
  8 35  1  0
 10 36  1  0
 10 37  1  0
 13 38  1  0
 14 39  1  0
 14 40  1  0
 16 41  1  0
 17 42  1  0
 18 43  1  0
 20 44  1  0
 23 45  1  0
 24 46  1  0
 25 47  1  0
 26 48  1  0
M  END
>  <Energy>  (893) 
377.76433903458354

>  <compound_id>  (893) 
16033

>  <target_id>  (893) 
1

>  <reference_id>  (893) 
52

>  <inspiration_ids>  (893) 
[52, 48]

>  <energy_score>  (893) 
275.72657975933174

>  <distance_score>  (893) 
5.191866410444502

>  <path>  (893) 
/opt/xchem-fragalysis-2/maxwin/BulkDock/SCRATCH/511017/C16033-P52/C16033-P52.minimised.mol

>  <scratch_subdir>  (893) 
/opt/xchem-fragalysis-2/maxwin/BulkDock/SCRATCH/511017/C16033-P52

>  <fragmenstein_runtime>  (893) 
14.33375859260559

>  <fragmenstein_outcome>  (893) 
too moved

>  <fragmenstein_mode>  (893) 
expansion

>  <fragmenstein_error>  (893) 


$$$$
C16033-P48
     RDKit          3D

 48 50  0  0  0  0  0  0  0  0999 V2000
  -11.2052  -26.1754   26.0566 C   0  0  0  0  0  0  0  0  0  0  0  0
  -10.6024  -24.7656   25.8757 C   0  0  0  0  0  0  0  0  0  0  0  0
  -11.6360  -23.7330   25.8640 N   0  0  0  0  0  0  0  0  0  0  0  0
  -12.0197  -22.5807   24.8468 C   0  0  0  0  0  0  0  0  0  0  0  0
  -11.1392  -22.0197   23.5056 N   0  0  0  0  0  0  0  0  0  0  0  0
  -11.4553  -22.0609   22.0053 C   0  0  0  0  0  0  0  0  0  0  0  0
  -12.4264  -22.4684   21.4279 O   0  0  0  0  0  0  0  0  0  0  0  0
  -10.0661  -21.5109   20.8045 C   0  0  0  0  0  0  0  0  0  0  0  0
   -9.1657  -20.6992   19.5362 O   0  0  0  0  0  0  0  0  0  0  0  0
   -8.9105  -20.8962   17.7178 C   0  0  0  0  0  0  0  0  0  0  0  0
   -9.6218  -21.4858   15.9084 C   0  0  0  0  0  0  0  0  0  0  0  0
  -10.0423  -20.5407   15.3074 O   0  0  0  0  0  0  0  0  0  0  0  0
   -9.4779  -22.8482   15.5008 N   0  0  0  0  0  0  0  0  0  0  0  0
   -9.7020  -23.4916   14.2141 C   0  0  0  0  0  0  0  0  0  0  0  0
  -10.9993  -23.9504   13.6044 C   0  0  0  0  0  0  0  0  0  0  0  0
  -11.7002  -25.0692   14.0671 C   0  0  0  0  0  0  0  0  0  0  0  0
  -12.7031  -25.6465   13.2850 C   0  0  0  0  0  0  0  0  0  0  0  0
  -12.9582  -25.1109   12.0360 C   0  0  0  0  0  0  0  0  0  0  0  0
  -12.2900  -24.0558   11.5382 N   0  0  0  0  0  0  0  0  0  0  0  0
  -11.3456  -23.4959   12.3372 C   0  0  0  0  0  0  0  0  0  0  0  0
  -12.2118  -21.6717   25.8620 N   0  0  0  0  0  0  0  0  0  0  0  0
  -12.1221  -22.1805   27.2255 C   0  0  0  0  0  0  0  0  0  0  0  0
  -12.1332  -21.6465   28.5504 C   0  0  0  0  0  0  0  0  0  0  0  0
  -11.8957  -22.3925   29.7212 C   0  0  0  0  0  0  0  0  0  0  0  0
  -11.7620  -23.7577   29.6265 C   0  0  0  0  0  0  0  0  0  0  0  0
  -11.8497  -24.3408   28.3689 C   0  0  0  0  0  0  0  0  0  0  0  0
  -11.9878  -23.5240   27.1945 C   0  0  0  0  0  0  0  0  0  0  0  0
  -10.9187  -26.6064   27.0201 H   0  0  0  0  0  0  0  0  0  0  0  0
  -10.8451  -26.9169   25.3490 H   0  0  0  0  0  0  0  0  0  0  0  0
  -12.2998  -26.1778   26.0027 H   0  0  0  0  0  0  0  0  0  0  0  0
   -9.9364  -24.5609   26.7245 H   0  0  0  0  0  0  0  0  0  0  0  0
   -9.9501  -24.5682   25.0599 H   0  0  0  0  0  0  0  0  0  0  0  0
  -10.2063  -21.6899   23.6365 H   0  0  0  0  0  0  0  0  0  0  0  0
   -9.3015  -21.4807   21.5666 H   0  0  0  0  0  0  0  0  0  0  0  0
  -10.0710  -22.4408   20.3435 H   0  0  0  0  0  0  0  0  0  0  0  0
   -9.4293  -21.7203   17.9637 H   0  0  0  0  0  0  0  0  0  0  0  0
   -9.2315  -19.8852   17.6094 H   0  0  0  0  0  0  0  0  0  0  0  0
   -9.0155  -23.3496   16.2191 H   0  0  0  0  0  0  0  0  0  0  0  0
   -9.2297  -24.4641   14.3033 H   0  0  0  0  0  0  0  0  0  0  0  0
   -9.1645  -22.8790   13.4813 H   0  0  0  0  0  0  0  0  0  0  0  0
  -11.4357  -25.5248   15.0183 H   0  0  0  0  0  0  0  0  0  0  0  0
  -13.2541  -26.5115   13.6365 H   0  0  0  0  0  0  0  0  0  0  0  0
  -13.7194  -25.5317   11.3865 H   0  0  0  0  0  0  0  0  0  0  0  0
  -10.8058  -22.6661   11.8865 H   0  0  0  0  0  0  0  0  0  0  0  0
  -12.4495  -20.6376   28.7420 H   0  0  0  0  0  0  0  0  0  0  0  0
  -11.9530  -21.9085   30.6908 H   0  0  0  0  0  0  0  0  0  0  0  0
  -11.6538  -24.3676   30.5174 H   0  0  0  0  0  0  0  0  0  0  0  0
  -11.7646  -25.4155   28.3315 H   0  0  0  0  0  0  0  0  0  0  0  0
  1  2  1  0
  2  3  1  0
  3  4  1  0
  4  5  1  0
  5  6  1  0
  6  7  2  0
  6  8  1  0
  8  9  1  0
  9 10  1  0
 10 11  1  0
 11 12  2  0
 11 13  1  0
 13 14  1  0
 14 15  1  0
 15 16  2  0
 16 17  1  0
 17 18  2  0
 18 19  1  0
 19 20  2  0
  4 21  2  0
 21 22  1  0
 22 23  2  0
 23 24  1  0
 24 25  2  0
 25 26  1  0
 26 27  2  0
 27  3  1  0
 20 15  1  0
 27 22  1  0
  1 28  1  0
  1 29  1  0
  1 30  1  0
  2 31  1  0
  2 32  1  0
  5 33  1  0
  8 34  1  0
  8 35  1  0
 10 36  1  0
 10 37  1  0
 13 38  1  0
 14 39  1  0
 14 40  1  0
 16 41  1  0
 17 42  1  0
 18 43  1  0
 20 44  1  0
 23 45  1  0
 24 46  1  0
 25 47  1  0
 26 48  1  0
M  END
>  <Energy>  (894) 
486.20215849047872

>  <compound_id>  (894) 
16033

>  <target_id>  (894) 
1

>  <reference_id>  (894) 
48

>  <inspiration_ids>  (894) 
[52, 48]

>  <energy_score>  (894) 
384.16439921521726

>  <distance_score>  (894) 
5.07871055485276

>  <path>  (894) 
/opt/xchem-fragalysis-2/maxwin/BulkDock/SCRATCH/511017/C16033-P48/C16033-P48.minimised.mol

>  <scratch_subdir>  (894) 
/opt/xchem-fragalysis-2/maxwin/BulkDock/SCRATCH/511017/C16033-P48

>  <fragmenstein_runtime>  (894) 
17.211862564086914

>  <fragmenstein_outcome>  (894) 
too moved

>  <fragmenstein_mode>  (894) 
expansion

>  <fragmenstein_error>  (894) 


$$$$
C16034-P52
     RDKit          3D

 51 53  0  0  0  0  0  0  0  0999 V2000
  -14.3739  -25.7434   25.2642 C   0  0  0  0  0  0  0  0  0  0  0  0
  -14.9355  -24.3388   25.4061 C   0  0  0  0  0  0  0  0  0  0  0  0
  -14.0924  -23.1957   24.7856 C   0  0  0  0  0  0  0  0  0  0  0  0
  -12.7544  -22.9828   25.2647 N   0  0  0  0  0  0  0  0  0  0  0  0
  -11.6387  -22.5246   24.4685 C   0  0  0  0  0  0  0  0  0  0  0  0
  -11.3954  -22.0759   23.0590 N   0  0  0  0  0  0  0  0  0  0  0  0
  -10.0983  -21.6347   22.3617 C   0  0  0  0  0  0  0  0  0  0  0  0
   -9.0025  -21.4704   22.8095 O   0  0  0  0  0  0  0  0  0  0  0  0
  -10.0650  -21.4207   20.4863 C   0  0  0  0  0  0  0  0  0  0  0  0
   -9.0445  -21.0800   19.0081 O   0  0  0  0  0  0  0  0  0  0  0  0
   -9.0873  -21.5187   17.1833 C   0  0  0  0  0  0  0  0  0  0  0  0
   -8.9019  -22.8305   15.5459 C   0  0  0  0  0  0  0  0  0  0  0  0
   -7.9953  -22.5664   14.8231 O   0  0  0  0  0  0  0  0  0  0  0  0
   -9.8360  -23.8950   15.4256 N   0  0  0  0  0  0  0  0  0  0  0  0
   -9.9228  -25.0072   14.4885 C   0  0  0  0  0  0  0  0  0  0  0  0
  -10.4196  -24.8477   13.0755 C   0  0  0  0  0  0  0  0  0  0  0  0
  -11.3220  -25.7952   12.5525 C   0  0  0  0  0  0  0  0  0  0  0  0
  -11.6042  -25.8447   11.1879 C   0  0  0  0  0  0  0  0  0  0  0  0
  -10.9726  -24.9356   10.3662 C   0  0  0  0  0  0  0  0  0  0  0  0
  -10.1253  -23.9929   10.8229 N   0  0  0  0  0  0  0  0  0  0  0  0
   -9.8582  -23.9685   12.1607 C   0  0  0  0  0  0  0  0  0  0  0  0
  -10.6109  -22.9812   25.1810 N   0  0  0  0  0  0  0  0  0  0  0  0
  -10.9689  -23.1916   26.4843 C   0  0  0  0  0  0  0  0  0  0  0  0
  -10.2088  -23.2617   27.6673 C   0  0  0  0  0  0  0  0  0  0  0  0
  -10.7392  -23.7331   28.8620 C   0  0  0  0  0  0  0  0  0  0  0  0
  -12.0423  -24.1700   28.8617 C   0  0  0  0  0  0  0  0  0  0  0  0
  -12.8321  -24.0408   27.7080 C   0  0  0  0  0  0  0  0  0  0  0  0
  -12.3092  -23.4322   26.5330 C   0  0  0  0  0  0  0  0  0  0  0  0
  -14.5275  -26.1155   24.2504 H   0  0  0  0  0  0  0  0  0  0  0  0
  -14.9092  -26.4260   25.9332 H   0  0  0  0  0  0  0  0  0  0  0  0
  -13.3109  -25.8120   25.5023 H   0  0  0  0  0  0  0  0  0  0  0  0
  -15.9523  -24.3261   24.9987 H   0  0  0  0  0  0  0  0  0  0  0  0
  -15.1451  -24.1551   26.4485 H   0  0  0  0  0  0  0  0  0  0  0  0
  -14.6546  -22.2692   24.8786 H   0  0  0  0  0  0  0  0  0  0  0  0
  -13.9474  -23.3357   23.7230 H   0  0  0  0  0  0  0  0  0  0  0  0
  -12.1580  -22.0331   22.4017 H   0  0  0  0  0  0  0  0  0  0  0  0
  -11.0622  -21.0131   20.3259 H   0  0  0  0  0  0  0  0  0  0  0  0
  -10.0279  -22.4554   20.3598 H   0  0  0  0  0  0  0  0  0  0  0  0
   -8.0774  -21.0597   17.2908 H   0  0  0  0  0  0  0  0  0  0  0  0
   -9.5266  -20.6276   16.8126 H   0  0  0  0  0  0  0  0  0  0  0  0
  -10.3895  -23.8955   16.1950 H   0  0  0  0  0  0  0  0  0  0  0  0
  -10.5873  -25.7179   14.9978 H   0  0  0  0  0  0  0  0  0  0  0  0
   -8.9676  -25.5206   14.4410 H   0  0  0  0  0  0  0  0  0  0  0  0
  -11.7734  -26.5396   13.2048 H   0  0  0  0  0  0  0  0  0  0  0  0
  -12.2796  -26.5878   10.7810 H   0  0  0  0  0  0  0  0  0  0  0  0
  -11.1367  -24.9325    9.2937 H   0  0  0  0  0  0  0  0  0  0  0  0
   -9.1204  -23.2256   12.4628 H   0  0  0  0  0  0  0  0  0  0  0  0
   -9.1934  -22.9190   27.6334 H   0  0  0  0  0  0  0  0  0  0  0  0
  -10.1249  -23.7886   29.7558 H   0  0  0  0  0  0  0  0  0  0  0  0
  -12.4642  -24.5977   29.7652 H   0  0  0  0  0  0  0  0  0  0  0  0
  -13.8406  -24.4142   27.7874 H   0  0  0  0  0  0  0  0  0  0  0  0
  1  2  1  0
  2  3  1  0
  3  4  1  0
  4  5  1  0
  5  6  1  0
  6  7  1  0
  7  8  2  0
  7  9  1  0
  9 10  1  0
 10 11  1  0
 11 12  1  0
 12 13  2  0
 12 14  1  0
 14 15  1  0
 15 16  1  0
 16 17  2  0
 17 18  1  0
 18 19  2  0
 19 20  1  0
 20 21  2  0
  5 22  2  0
 22 23  1  0
 23 24  2  0
 24 25  1  0
 25 26  2  0
 26 27  1  0
 27 28  2  0
 28  4  1  0
 21 16  1  0
 28 23  1  0
  1 29  1  0
  1 30  1  0
  1 31  1  0
  2 32  1  0
  2 33  1  0
  3 34  1  0
  3 35  1  0
  6 36  1  0
  9 37  1  0
  9 38  1  0
 11 39  1  0
 11 40  1  0
 14 41  1  0
 15 42  1  0
 15 43  1  0
 17 44  1  0
 18 45  1  0
 19 46  1  0
 21 47  1  0
 24 48  1  0
 25 49  1  0
 26 50  1  0
 27 51  1  0
M  END
>  <Energy>  (895) 
404.24089271949231

>  <compound_id>  (895) 
16034

>  <target_id>  (895) 
1

>  <reference_id>  (895) 
52

>  <inspiration_ids>  (895) 
[52, 48]

>  <energy_score>  (895) 
313.97605352873524

>  <distance_score>  (895) 
5.0270258505515235

>  <path>  (895) 
/opt/xchem-fragalysis-2/maxwin/BulkDock/SCRATCH/511017/C16034-P52/C16034-P52.minimised.mol

>  <scratch_subdir>  (895) 
/opt/xchem-fragalysis-2/maxwin/BulkDock/SCRATCH/511017/C16034-P52

>  <fragmenstein_runtime>  (895) 
24.81212854385376

>  <fragmenstein_outcome>  (895) 
too moved

>  <fragmenstein_mode>  (895) 
expansion

>  <fragmenstein_error>  (895) 


$$$$
C16034-P48
     RDKit          3D

 51 53  0  0  0  0  0  0  0  0999 V2000
  -12.8239  -26.4076   26.2765 C   0  0  0  0  0  0  0  0  0  0  0  0
  -11.3114  -26.2631   26.1702 C   0  0  0  0  0  0  0  0  0  0  0  0
  -10.7133  -24.8471   25.9655 C   0  0  0  0  0  0  0  0  0  0  0  0
  -11.6319  -23.7430   26.0758 N   0  0  0  0  0  0  0  0  0  0  0  0
  -12.0760  -22.6315   25.1731 C   0  0  0  0  0  0  0  0  0  0  0  0
  -11.7846  -22.2152   23.5836 N   0  0  0  0  0  0  0  0  0  0  0  0
  -10.3810  -22.0102   22.7680 C   0  0  0  0  0  0  0  0  0  0  0  0
   -9.2668  -22.1614   23.1960 O   0  0  0  0  0  0  0  0  0  0  0  0
  -10.3017  -21.6229   20.8392 C   0  0  0  0  0  0  0  0  0  0  0  0
   -9.1860  -20.9198   19.5257 O   0  0  0  0  0  0  0  0  0  0  0  0
   -9.0371  -20.9586   17.6758 C   0  0  0  0  0  0  0  0  0  0  0  0
   -9.5671  -21.9616   15.9500 C   0  0  0  0  0  0  0  0  0  0  0  0
   -9.4353  -23.1354   15.9658 O   0  0  0  0  0  0  0  0  0  0  0  0
  -10.0090  -21.1256   14.8578 N   0  0  0  0  0  0  0  0  0  0  0  0
  -10.5216  -21.4731   13.4763 C   0  0  0  0  0  0  0  0  0  0  0  0
  -10.7699  -22.9164   13.0488 C   0  0  0  0  0  0  0  0  0  0  0  0
   -9.7138  -23.7283   12.6556 C   0  0  0  0  0  0  0  0  0  0  0  0
   -9.9225  -24.9817   12.0740 C   0  0  0  0  0  0  0  0  0  0  0  0
  -11.2223  -25.4019   11.8827 C   0  0  0  0  0  0  0  0  0  0  0  0
  -12.2891  -24.6650   12.2394 N   0  0  0  0  0  0  0  0  0  0  0  0
  -12.0310  -23.4596   12.8178 C   0  0  0  0  0  0  0  0  0  0  0  0
  -12.2168  -21.6823   26.1264 N   0  0  0  0  0  0  0  0  0  0  0  0
  -12.0758  -22.1634   27.4677 C   0  0  0  0  0  0  0  0  0  0  0  0
  -12.1447  -21.6016   28.7786 C   0  0  0  0  0  0  0  0  0  0  0  0
  -11.9625  -22.3439   29.9597 C   0  0  0  0  0  0  0  0  0  0  0  0
  -11.7318  -23.7008   29.8723 C   0  0  0  0  0  0  0  0  0  0  0  0
  -11.6346  -24.2849   28.6150 C   0  0  0  0  0  0  0  0  0  0  0  0
  -11.8341  -23.4959   27.4378 C   0  0  0  0  0  0  0  0  0  0  0  0
  -13.1049  -27.4530   26.1059 H   0  0  0  0  0  0  0  0  0  0  0  0
  -13.3659  -25.7964   25.5511 H   0  0  0  0  0  0  0  0  0  0  0  0
  -13.1707  -26.1604   27.2801 H   0  0  0  0  0  0  0  0  0  0  0  0
  -10.8847  -26.7091   27.0759 H   0  0  0  0  0  0  0  0  0  0  0  0
  -10.9562  -26.9330   25.3898 H   0  0  0  0  0  0  0  0  0  0  0  0
   -9.9483  -24.7021   26.7388 H   0  0  0  0  0  0  0  0  0  0  0  0
  -10.1116  -24.6703   25.1058 H   0  0  0  0  0  0  0  0  0  0  0  0
  -12.5528  -21.9353   22.9933 H   0  0  0  0  0  0  0  0  0  0  0  0
   -9.3484  -21.3691   21.2736 H   0  0  0  0  0  0  0  0  0  0  0  0
  -11.1129  -20.9038   20.7904 H   0  0  0  0  0  0  0  0  0  0  0  0
   -7.9483  -20.8451   17.6794 H   0  0  0  0  0  0  0  0  0  0  0  0
   -9.2688  -19.9000   17.5756 H   0  0  0  0  0  0  0  0  0  0  0  0
  -10.0925  -20.1843   15.1899 H   0  0  0  0  0  0  0  0  0  0  0  0
   -9.8478  -21.0738   12.7124 H   0  0  0  0  0  0  0  0  0  0  0  0
  -11.4200  -20.8797   13.3334 H   0  0  0  0  0  0  0  0  0  0  0  0
   -8.7113  -23.3412   12.7729 H   0  0  0  0  0  0  0  0  0  0  0  0
   -9.0858  -25.6035   11.7758 H   0  0  0  0  0  0  0  0  0  0  0  0
  -11.4438  -26.3640   11.4322 H   0  0  0  0  0  0  0  0  0  0  0  0
  -12.9368  -22.9164   13.0505 H   0  0  0  0  0  0  0  0  0  0  0  0
  -12.4748  -20.5873   28.9185 H   0  0  0  0  0  0  0  0  0  0  0  0
  -12.0829  -21.8671   30.9270 H   0  0  0  0  0  0  0  0  0  0  0  0
  -11.6202  -24.3000   30.7707 H   0  0  0  0  0  0  0  0  0  0  0  0
  -11.3916  -25.3375   28.5804 H   0  0  0  0  0  0  0  0  0  0  0  0
  1  2  1  0
  2  3  1  0
  3  4  1  0
  4  5  1  0
  5  6  1  0
  6  7  1  0
  7  8  2  0
  7  9  1  0
  9 10  1  0
 10 11  1  0
 11 12  1  0
 12 13  2  0
 12 14  1  0
 14 15  1  0
 15 16  1  0
 16 17  2  0
 17 18  1  0
 18 19  2  0
 19 20  1  0
 20 21  2  0
  5 22  2  0
 22 23  1  0
 23 24  2  0
 24 25  1  0
 25 26  2  0
 26 27  1  0
 27 28  2  0
 28  4  1  0
 21 16  1  0
 28 23  1  0
  1 29  1  0
  1 30  1  0
  1 31  1  0
  2 32  1  0
  2 33  1  0
  3 34  1  0
  3 35  1  0
  6 36  1  0
  9 37  1  0
  9 38  1  0
 11 39  1  0
 11 40  1  0
 14 41  1  0
 15 42  1  0
 15 43  1  0
 17 44  1  0
 18 45  1  0
 19 46  1  0
 21 47  1  0
 24 48  1  0
 25 49  1  0
 26 50  1  0
 27 51  1  0
M  END
>  <Energy>  (896) 
492.30968528790049

>  <compound_id>  (896) 
16034

>  <target_id>  (896) 
1

>  <reference_id>  (896) 
48

>  <inspiration_ids>  (896) 
[52, 48]

>  <energy_score>  (896) 
402.04484609714154

>  <distance_score>  (896) 
4.971727795996389

>  <path>  (896) 
/opt/xchem-fragalysis-2/maxwin/BulkDock/SCRATCH/511017/C16034-P48/C16034-P48.minimised.mol

>  <scratch_subdir>  (896) 
/opt/xchem-fragalysis-2/maxwin/BulkDock/SCRATCH/511017/C16034-P48

>  <fragmenstein_runtime>  (896) 
17.33046555519104

>  <fragmenstein_outcome>  (896) 
too moved

>  <fragmenstein_mode>  (896) 
expansion

>  <fragmenstein_error>  (896) 


$$$$
C16035-P52
     RDKit          3D

 41 43  0  0  0  0  0  0  0  0999 V2000
  -12.8845  -27.4566   18.7351 C   0  0  0  0  0  0  0  0  0  0  0  0
  -11.4854  -28.1574   19.1702 C   0  0  0  0  0  0  0  0  0  0  0  0
  -10.7622  -28.0862   17.6259 C   0  0  0  0  0  0  0  0  0  0  0  0
  -11.4879  -27.9060   16.2749 C   0  0  0  0  0  0  0  0  0  0  0  0
  -12.4168  -28.8257   15.7818 C   0  0  0  0  0  0  0  0  0  0  0  0
  -12.9961  -28.6361   14.5223 C   0  0  0  0  0  0  0  0  0  0  0  0
  -12.6241  -27.5321   13.7744 C   0  0  0  0  0  0  0  0  0  0  0  0
  -11.7165  -26.6334   14.1932 N   0  0  0  0  0  0  0  0  0  0  0  0
  -11.1575  -26.8529   15.4112 C   0  0  0  0  0  0  0  0  0  0  0  0
  -10.5582  -28.0807   20.9175 N   0  0  0  0  0  0  0  0  0  0  0  0
  -10.4536  -27.2574   22.6764 C   0  0  0  0  0  0  0  0  0  0  0  0
  -11.3327  -26.6350   24.4515 C   0  0  0  0  0  0  0  0  0  0  0  0
  -10.7687  -25.6170   25.1572 N   0  0  0  0  0  0  0  0  0  0  0  0
  -11.4468  -25.3621   26.3241 C   0  0  0  0  0  0  0  0  0  0  0  0
  -11.1789  -24.4494   27.3543 C   0  0  0  0  0  0  0  0  0  0  0  0
  -11.9365  -24.5530   28.5243 C   0  0  0  0  0  0  0  0  0  0  0  0
  -11.6367  -23.6315   29.6343 C   0  0  0  0  0  0  0  0  0  0  0  0
  -11.2878  -22.4744   29.5224 O   0  0  0  0  0  0  0  0  0  0  0  0
  -11.7820  -24.2382   30.8243 O   0  0  0  0  0  0  0  0  0  0  0  0
  -12.9568  -25.5045   28.6384 C   0  0  0  0  0  0  0  0  0  0  0  0
  -13.2802  -26.3577   27.5818 C   0  0  0  0  0  0  0  0  0  0  0  0
  -12.4989  -26.2389   26.4351 C   0  0  0  0  0  0  0  0  0  0  0  0
  -12.4690  -26.9731   25.2625 N   0  0  0  0  0  0  0  0  0  0  0  0
  -13.5152  -26.9968   19.4863 H   0  0  0  0  0  0  0  0  0  0  0  0
  -13.5131  -28.1963   18.2283 H   0  0  0  0  0  0  0  0  0  0  0  0
  -12.7024  -26.6187   18.0539 H   0  0  0  0  0  0  0  0  0  0  0  0
  -11.6574  -29.2565   19.1333 H   0  0  0  0  0  0  0  0  0  0  0  0
  -10.2939  -29.0645   17.4682 H   0  0  0  0  0  0  0  0  0  0  0  0
  -10.0271  -27.2913   17.6442 H   0  0  0  0  0  0  0  0  0  0  0  0
  -12.6888  -29.7010   16.3659 H   0  0  0  0  0  0  0  0  0  0  0  0
  -13.7198  -29.3433   14.1323 H   0  0  0  0  0  0  0  0  0  0  0  0
  -13.0490  -27.3447   12.7932 H   0  0  0  0  0  0  0  0  0  0  0  0
  -10.3931  -26.1261   15.6753 H   0  0  0  0  0  0  0  0  0  0  0  0
  -10.1040  -27.2247   20.5569 H   0  0  0  0  0  0  0  0  0  0  0  0
  -10.3010  -26.4768   21.9649 H   0  0  0  0  0  0  0  0  0  0  0  0
  -11.3567  -27.5562   22.9560 H   0  0  0  0  0  0  0  0  0  0  0  0
  -10.3755  -23.7259   27.2633 H   0  0  0  0  0  0  0  0  0  0  0  0
  -11.5910  -23.5299   31.4802 H   0  0  0  0  0  0  0  0  0  0  0  0
  -13.5287  -25.5877   29.5512 H   0  0  0  0  0  0  0  0  0  0  0  0
  -14.0770  -27.0881   27.6679 H   0  0  0  0  0  0  0  0  0  0  0  0
  -12.8510  -27.8881   25.2693 H   0  0  0  0  0  0  0  0  0  0  0  0
  1  2  1  0
  2  3  1  0
  3  4  1  0
  4  5  2  0
  5  6  1  0
  6  7  2  0
  7  8  1  0
  8  9  2  0
  2 10  1  0
 10 11  1  0
 11 12  1  0
 12 13  2  0
 13 14  1  0
 14 15  2  0
 15 16  1  0
 16 17  1  0
 17 18  2  0
 17 19  1  0
 16 20  2  0
 20 21  1  0
 21 22  2  0
 22 23  1  0
  9  4  1  0
 23 12  1  0
 22 14  1  0
  1 24  1  0
  1 25  1  0
  1 26  1  0
  2 27  1  0
  3 28  1  0
  3 29  1  0
  5 30  1  0
  6 31  1  0
  7 32  1  0
  9 33  1  0
 10 34  1  0
 11 35  1  0
 11 36  1  0
 15 37  1  0
 19 38  1  0
 20 39  1  0
 21 40  1  0
 23 41  1  0
M  END
>  <Energy>  (897) 
458.52698075914526

>  <compound_id>  (897) 
16035

>  <target_id>  (897) 
1

>  <reference_id>  (897) 
52

>  <inspiration_ids>  (897) 
[52, 48]

>  <energy_score>  (897) 
390.64193785248244

>  <distance_score>  (897) 
7.0094189631413935

>  <path>  (897) 
/opt/xchem-fragalysis-2/maxwin/BulkDock/SCRATCH/511017/C16035-P52/C16035-P52.minimised.mol

>  <scratch_subdir>  (897) 
/opt/xchem-fragalysis-2/maxwin/BulkDock/SCRATCH/511017/C16035-P52

>  <fragmenstein_runtime>  (897) 
12.222471475601196

>  <fragmenstein_outcome>  (897) 
too moved

>  <fragmenstein_mode>  (897) 
expansion

>  <fragmenstein_error>  (897) 


$$$$
C16035-P48
     RDKit          3D

 41 43  0  0  0  0  0  0  0  0999 V2000
  -12.9647  -26.7712   18.6299 C   0  0  0  0  0  0  0  0  0  0  0  0
  -13.5164  -25.3640   19.0799 C   0  0  0  0  0  0  0  0  0  0  0  0
  -14.2005  -24.8330   17.7023 C   0  0  0  0  0  0  0  0  0  0  0  0
  -14.0319  -25.3827   16.2547 C   0  0  0  0  0  0  0  0  0  0  0  0
  -12.8478  -25.8985   15.7000 C   0  0  0  0  0  0  0  0  0  0  0  0
  -12.7590  -26.2003   14.3365 C   0  0  0  0  0  0  0  0  0  0  0  0
  -13.8602  -25.9674   13.5364 C   0  0  0  0  0  0  0  0  0  0  0  0
  -15.0183  -25.4664   14.0064 N   0  0  0  0  0  0  0  0  0  0  0  0
  -15.0715  -25.1852   15.3350 C   0  0  0  0  0  0  0  0  0  0  0  0
  -12.5988  -24.4582   20.1997 N   0  0  0  0  0  0  0  0  0  0  0  0
  -12.4277  -22.9446   21.1099 C   0  0  0  0  0  0  0  0  0  0  0  0
  -12.8129  -22.5324   22.8658 C   0  0  0  0  0  0  0  0  0  0  0  0
  -12.0259  -22.1929   23.9137 N   0  0  0  0  0  0  0  0  0  0  0  0
  -12.5795  -22.8526   25.0916 C   0  0  0  0  0  0  0  0  0  0  0  0
  -12.0711  -23.2172   26.3603 C   0  0  0  0  0  0  0  0  0  0  0  0
  -12.3841  -24.5076   26.8324 C   0  0  0  0  0  0  0  0  0  0  0  0
  -11.7881  -24.9714   28.1019 C   0  0  0  0  0  0  0  0  0  0  0  0
  -10.7967  -24.5387   28.6469 O   0  0  0  0  0  0  0  0  0  0  0  0
  -12.5197  -25.9594   28.6572 O   0  0  0  0  0  0  0  0  0  0  0  0
  -13.2808  -25.3380   26.1431 C   0  0  0  0  0  0  0  0  0  0  0  0
  -14.0856  -24.8054   25.1285 C   0  0  0  0  0  0  0  0  0  0  0  0
  -13.6950  -23.5476   24.6608 C   0  0  0  0  0  0  0  0  0  0  0  0
  -14.0352  -22.7473   23.5831 N   0  0  0  0  0  0  0  0  0  0  0  0
  -13.1018  -27.5505   19.3786 H   0  0  0  0  0  0  0  0  0  0  0  0
  -13.5551  -27.2097   17.8200 H   0  0  0  0  0  0  0  0  0  0  0  0
  -11.9213  -26.7270   18.3185 H   0  0  0  0  0  0  0  0  0  0  0  0
  -14.3237  -25.7403   19.6869 H   0  0  0  0  0  0  0  0  0  0  0  0
  -13.9421  -23.7999   17.6175 H   0  0  0  0  0  0  0  0  0  0  0  0
  -15.2823  -24.8589   17.8679 H   0  0  0  0  0  0  0  0  0  0  0  0
  -11.9458  -26.0108   16.2941 H   0  0  0  0  0  0  0  0  0  0  0  0
  -11.8358  -26.5793   13.9111 H   0  0  0  0  0  0  0  0  0  0  0  0
  -13.8375  -26.1750   12.4711 H   0  0  0  0  0  0  0  0  0  0  0  0
  -16.0170  -24.7470   15.6497 H   0  0  0  0  0  0  0  0  0  0  0  0
  -11.9016  -25.0958   20.5751 H   0  0  0  0  0  0  0  0  0  0  0  0
  -11.3579  -22.8233   21.2219 H   0  0  0  0  0  0  0  0  0  0  0  0
  -12.5505  -22.1607   20.4001 H   0  0  0  0  0  0  0  0  0  0  0  0
  -11.3653  -22.6141   26.9122 H   0  0  0  0  0  0  0  0  0  0  0  0
  -12.0849  -26.0791   29.5309 H   0  0  0  0  0  0  0  0  0  0  0  0
  -13.4682  -26.3554   26.4830 H   0  0  0  0  0  0  0  0  0  0  0  0
  -14.8865  -25.3735   24.6707 H   0  0  0  0  0  0  0  0  0  0  0  0
  -14.4449  -21.8857   23.9032 H   0  0  0  0  0  0  0  0  0  0  0  0
  1  2  1  0
  2  3  1  0
  3  4  1  0
  4  5  2  0
  5  6  1  0
  6  7  2  0
  7  8  1  0
  8  9  2  0
  2 10  1  0
 10 11  1  0
 11 12  1  0
 12 13  2  0
 13 14  1  0
 14 15  2  0
 15 16  1  0
 16 17  1  0
 17 18  2  0
 17 19  1  0
 16 20  2  0
 20 21  1  0
 21 22  2  0
 22 23  1  0
  9  4  1  0
 23 12  1  0
 22 14  1  0
  1 24  1  0
  1 25  1  0
  1 26  1  0
  2 27  1  0
  3 28  1  0
  3 29  1  0
  5 30  1  0
  6 31  1  0
  7 32  1  0
  9 33  1  0
 10 34  1  0
 11 35  1  0
 11 36  1  0
 15 37  1  0
 19 38  1  0
 20 39  1  0
 21 40  1  0
 23 41  1  0
M  END
>  <Energy>  (898) 
253.6344121710998

>  <compound_id>  (898) 
16035

>  <target_id>  (898) 
1

>  <reference_id>  (898) 
48

>  <inspiration_ids>  (898) 
[52, 48]

>  <energy_score>  (898) 
185.74936926444275

>  <distance_score>  (898) 
7.372416149288895

>  <path>  (898) 
/opt/xchem-fragalysis-2/maxwin/BulkDock/SCRATCH/511017/C16035-P48/C16035-P48.minimised.mol

>  <scratch_subdir>  (898) 
/opt/xchem-fragalysis-2/maxwin/BulkDock/SCRATCH/511017/C16035-P48

>  <fragmenstein_runtime>  (898) 
6.473621606826782

>  <fragmenstein_outcome>  (898) 
too moved

>  <fragmenstein_mode>  (898) 
expansion

>  <fragmenstein_error>  (898) 


$$$$
C16036-P52
     RDKit          3D

 44 46  0  0  0  0  0  0  0  0999 V2000
  -14.6054  -26.5348   25.9337 C   0  0  0  0  0  0  0  0  0  0  0  0
  -14.7865  -25.6574   24.7007 C   0  0  0  0  0  0  0  0  0  0  0  0
  -13.8981  -24.5207   24.4599 N   0  0  0  0  0  0  0  0  0  0  0  0
  -13.5809  -23.8068   23.0626 C   0  0  0  0  0  0  0  0  0  0  0  0
  -13.6614  -24.8893   21.3683 C   0  0  0  0  0  0  0  0  0  0  0  0
  -13.0754  -24.9726   19.7257 N   0  0  0  0  0  0  0  0  0  0  0  0
  -13.6852  -25.8171   18.3064 C   0  0  0  0  0  0  0  0  0  0  0  0
  -14.7474  -24.9859   17.5186 C   0  0  0  0  0  0  0  0  0  0  0  0
  -14.3110  -27.1958   18.5351 C   0  0  0  0  0  0  0  0  0  0  0  0
  -12.7109  -26.2989   17.0730 C   0  0  0  0  0  0  0  0  0  0  0  0
  -13.1079  -26.3105   15.6957 C   0  0  0  0  0  0  0  0  0  0  0  0
  -12.2815  -26.7829   14.6709 C   0  0  0  0  0  0  0  0  0  0  0  0
  -11.0694  -27.3149   15.0282 C   0  0  0  0  0  0  0  0  0  0  0  0
  -10.6839  -27.4329   16.3099 N   0  0  0  0  0  0  0  0  0  0  0  0
  -11.5067  -26.9385   17.2775 C   0  0  0  0  0  0  0  0  0  0  0  0
  -13.0651  -22.6272   23.4526 N   0  0  0  0  0  0  0  0  0  0  0  0
  -12.7571  -22.7245   24.8494 C   0  0  0  0  0  0  0  0  0  0  0  0
  -12.0371  -21.8593   25.6794 C   0  0  0  0  0  0  0  0  0  0  0  0
  -11.6549  -22.1758   27.0006 C   0  0  0  0  0  0  0  0  0  0  0  0
  -11.9525  -23.4146   27.5169 C   0  0  0  0  0  0  0  0  0  0  0  0
  -12.7099  -24.2964   26.7488 C   0  0  0  0  0  0  0  0  0  0  0  0
  -13.1395  -23.9167   25.4457 C   0  0  0  0  0  0  0  0  0  0  0  0
  -14.8621  -25.9976   26.8511 H   0  0  0  0  0  0  0  0  0  0  0  0
  -13.5929  -26.9431   25.9978 H   0  0  0  0  0  0  0  0  0  0  0  0
  -15.2985  -27.3822   25.8812 H   0  0  0  0  0  0  0  0  0  0  0  0
  -14.7560  -26.3078   23.8269 H   0  0  0  0  0  0  0  0  0  0  0  0
  -15.7969  -25.2392   24.7800 H   0  0  0  0  0  0  0  0  0  0  0  0
  -13.7988  -25.7619   21.9980 H   0  0  0  0  0  0  0  0  0  0  0  0
  -14.3692  -25.6207   21.1237 H   0  0  0  0  0  0  0  0  0  0  0  0
  -12.8881  -24.0199   19.4255 H   0  0  0  0  0  0  0  0  0  0  0  0
  -15.5321  -24.5050   18.0801 H   0  0  0  0  0  0  0  0  0  0  0  0
  -14.2633  -24.2269   16.9133 H   0  0  0  0  0  0  0  0  0  0  0  0
  -15.3469  -25.6169   16.8491 H   0  0  0  0  0  0  0  0  0  0  0  0
  -13.5352  -27.8926   18.8531 H   0  0  0  0  0  0  0  0  0  0  0  0
  -14.7120  -27.6382   17.6099 H   0  0  0  0  0  0  0  0  0  0  0  0
  -15.1766  -27.1842   19.1877 H   0  0  0  0  0  0  0  0  0  0  0  0
  -14.0630  -25.9190   15.3602 H   0  0  0  0  0  0  0  0  0  0  0  0
  -12.5841  -26.7322   13.6319 H   0  0  0  0  0  0  0  0  0  0  0  0
  -10.3665  -27.6889   14.2910 H   0  0  0  0  0  0  0  0  0  0  0  0
  -11.1502  -27.0917   18.2819 H   0  0  0  0  0  0  0  0  0  0  0  0
  -11.8524  -20.8769   25.2617 H   0  0  0  0  0  0  0  0  0  0  0  0
  -11.1187  -21.4414   27.5951 H   0  0  0  0  0  0  0  0  0  0  0  0
  -11.6273  -23.6883   28.5164 H   0  0  0  0  0  0  0  0  0  0  0  0
  -12.9244  -25.2626   27.1818 H   0  0  0  0  0  0  0  0  0  0  0  0
  1  2  1  0
  2  3  1  0
  3  4  1  0
  4  5  1  0
  5  6  1  0
  6  7  1  0
  7  8  1  0
  7  9  1  0
  7 10  1  0
 10 11  2  0
 11 12  1  0
 12 13  2  0
 13 14  1  0
 14 15  2  0
  4 16  2  0
 16 17  1  0
 17 18  2  0
 18 19  1  0
 19 20  2  0
 20 21  1  0
 21 22  2  0
 22  3  1  0
 15 10  1  0
 22 17  1  0
  1 23  1  0
  1 24  1  0
  1 25  1  0
  2 26  1  0
  2 27  1  0
  5 28  1  0
  5 29  1  0
  6 30  1  0
  8 31  1  0
  8 32  1  0
  8 33  1  0
  9 34  1  0
  9 35  1  0
  9 36  1  0
 11 37  1  0
 12 38  1  0
 13 39  1  0
 15 40  1  0
 18 41  1  0
 19 42  1  0
 20 43  1  0
 21 44  1  0
M  END
>  <Energy>  (899) 
325.66024320721414

>  <compound_id>  (899) 
16036

>  <target_id>  (899) 
1

>  <reference_id>  (899) 
52

>  <inspiration_ids>  (899) 
[52, 48]

>  <energy_score>  (899) 
253.14055192405306

>  <distance_score>  (899) 
7.333912753064762

>  <path>  (899) 
/opt/xchem-fragalysis-2/maxwin/BulkDock/SCRATCH/511017/C16036-P52/C16036-P52.minimised.mol

>  <scratch_subdir>  (899) 
/opt/xchem-fragalysis-2/maxwin/BulkDock/SCRATCH/511017/C16036-P52

>  <fragmenstein_runtime>  (899) 
9.469510316848755

>  <fragmenstein_outcome>  (899) 
too moved

>  <fragmenstein_mode>  (899) 
expansion

>  <fragmenstein_error>  (899) 


$$$$
C16036-P48
     RDKit          3D

 44 46  0  0  0  0  0  0  0  0999 V2000
   -9.7801  -24.2807   26.9485 C   0  0  0  0  0  0  0  0  0  0  0  0
  -10.3424  -24.4153   25.5464 C   0  0  0  0  0  0  0  0  0  0  0  0
  -11.4166  -23.4759   25.1575 N   0  0  0  0  0  0  0  0  0  0  0  0
  -12.0127  -22.6879   23.8273 C   0  0  0  0  0  0  0  0  0  0  0  0
  -12.1795  -22.8181   21.8683 C   0  0  0  0  0  0  0  0  0  0  0  0
  -12.3697  -24.2016   20.4983 N   0  0  0  0  0  0  0  0  0  0  0  0
  -13.3157  -25.2879   19.2249 C   0  0  0  0  0  0  0  0  0  0  0  0
  -14.1350  -24.6164   17.9940 C   0  0  0  0  0  0  0  0  0  0  0  0
  -14.3781  -26.4096   19.5010 C   0  0  0  0  0  0  0  0  0  0  0  0
  -12.3996  -26.4253   18.0655 C   0  0  0  0  0  0  0  0  0  0  0  0
  -11.9424  -26.0771   16.7601 C   0  0  0  0  0  0  0  0  0  0  0  0
  -11.6937  -26.9718   15.7050 C   0  0  0  0  0  0  0  0  0  0  0  0
  -11.9800  -28.2870   15.9111 C   0  0  0  0  0  0  0  0  0  0  0  0
  -12.4336  -28.7239   17.0902 N   0  0  0  0  0  0  0  0  0  0  0  0
  -12.5576  -27.8223   18.1145 C   0  0  0  0  0  0  0  0  0  0  0  0
  -12.5287  -21.7627   24.7033 N   0  0  0  0  0  0  0  0  0  0  0  0
  -12.4828  -22.4013   26.1205 C   0  0  0  0  0  0  0  0  0  0  0  0
  -12.2053  -22.0660   27.4803 C   0  0  0  0  0  0  0  0  0  0  0  0
  -11.9612  -23.0316   28.5008 C   0  0  0  0  0  0  0  0  0  0  0  0
  -12.2363  -24.3783   28.2585 C   0  0  0  0  0  0  0  0  0  0  0  0
  -12.6463  -24.7513   26.9753 C   0  0  0  0  0  0  0  0  0  0  0  0
  -12.5712  -23.7531   25.9594 C   0  0  0  0  0  0  0  0  0  0  0  0
   -8.7191  -24.1334   26.8600 H   0  0  0  0  0  0  0  0  0  0  0  0
  -10.0251  -25.1580   27.5420 H   0  0  0  0  0  0  0  0  0  0  0  0
  -10.0354  -23.4216   27.5366 H   0  0  0  0  0  0  0  0  0  0  0  0
   -9.5355  -24.2980   24.8630 H   0  0  0  0  0  0  0  0  0  0  0  0
  -10.7254  -25.4406   25.4820 H   0  0  0  0  0  0  0  0  0  0  0  0
  -13.1864  -22.5492   21.9738 H   0  0  0  0  0  0  0  0  0  0  0  0
  -11.5378  -22.0446   21.4374 H   0  0  0  0  0  0  0  0  0  0  0  0
  -12.6224  -23.3864   19.9315 H   0  0  0  0  0  0  0  0  0  0  0  0
  -14.2110  -25.2633   17.1102 H   0  0  0  0  0  0  0  0  0  0  0  0
  -15.1830  -24.3794   18.1302 H   0  0  0  0  0  0  0  0  0  0  0  0
  -13.6667  -23.7308   17.6509 H   0  0  0  0  0  0  0  0  0  0  0  0
  -13.8663  -27.1978   19.9705 H   0  0  0  0  0  0  0  0  0  0  0  0
  -14.7564  -26.8438   18.5586 H   0  0  0  0  0  0  0  0  0  0  0  0
  -15.3370  -26.3092   19.9860 H   0  0  0  0  0  0  0  0  0  0  0  0
  -11.7588  -25.0735   16.4569 H   0  0  0  0  0  0  0  0  0  0  0  0
  -11.3199  -26.6218   14.7496 H   0  0  0  0  0  0  0  0  0  0  0  0
  -11.8393  -29.0398   15.1442 H   0  0  0  0  0  0  0  0  0  0  0  0
  -12.8378  -28.3571   19.0096 H   0  0  0  0  0  0  0  0  0  0  0  0
  -12.1836  -21.0641   27.8125 H   0  0  0  0  0  0  0  0  0  0  0  0
  -11.7133  -22.6947   29.5031 H   0  0  0  0  0  0  0  0  0  0  0  0
  -12.1519  -25.1051   29.0601 H   0  0  0  0  0  0  0  0  0  0  0  0
  -12.7808  -25.7963   26.7160 H   0  0  0  0  0  0  0  0  0  0  0  0
  1  2  1  0
  2  3  1  0
  3  4  1  0
  4  5  1  0
  5  6  1  0
  6  7  1  0
  7  8  1  0
  7  9  1  0
  7 10  1  0
 10 11  2  0
 11 12  1  0
 12 13  2  0
 13 14  1  0
 14 15  2  0
  4 16  2  0
 16 17  1  0
 17 18  2  0
 18 19  1  0
 19 20  2  0
 20 21  1  0
 21 22  2  0
 22  3  1  0
 15 10  1  0
 22 17  1  0
  1 23  1  0
  1 24  1  0
  1 25  1  0
  2 26  1  0
  2 27  1  0
  5 28  1  0
  5 29  1  0
  6 30  1  0
  8 31  1  0
  8 32  1  0
  8 33  1  0
  9 34  1  0
  9 35  1  0
  9 36  1  0
 11 37  1  0
 12 38  1  0
 13 39  1  0
 15 40  1  0
 18 41  1  0
 19 42  1  0
 20 43  1  0
 21 44  1  0
M  END
>  <Energy>  (900) 
586.19341292533738

>  <compound_id>  (900) 
16036

>  <target_id>  (900) 
1

>  <reference_id>  (900) 
48

>  <inspiration_ids>  (900) 
[52, 48]

>  <energy_score>  (900) 
513.6737216421703

>  <distance_score>  (900) 
6.938862562887244

>  <path>  (900) 
/opt/xchem-fragalysis-2/maxwin/BulkDock/SCRATCH/511017/C16036-P48/C16036-P48.minimised.mol

>  <scratch_subdir>  (900) 
/opt/xchem-fragalysis-2/maxwin/BulkDock/SCRATCH/511017/C16036-P48

>  <fragmenstein_runtime>  (900) 
6.091631650924683

>  <fragmenstein_outcome>  (900) 
too moved

>  <fragmenstein_mode>  (900) 
expansion

>  <fragmenstein_error>  (900) 


$$$$
C16037-P52
     RDKit          3D

 38 40  0  0  0  0  0  0  0  0999 V2000
  -13.0069  -27.9327   18.6843 C   0  0  0  0  0  0  0  0  0  0  0  0
  -11.4627  -28.3131   19.0354 C   0  0  0  0  0  0  0  0  0  0  0  0
  -10.8899  -27.3306   17.9244 C   0  0  0  0  0  0  0  0  0  0  0  0
  -10.6506  -28.2836   20.8189 N   0  0  0  0  0  0  0  0  0  0  0  0
  -10.2361  -27.3314   22.3629 C   0  0  0  0  0  0  0  0  0  0  0  0
   -9.7290  -27.9371   24.1823 C   0  0  0  0  0  0  0  0  0  0  0  0
   -8.9936  -28.9484   24.6792 N   0  0  0  0  0  0  0  0  0  0  0  0
   -9.4069  -29.1582   26.0128 C   0  0  0  0  0  0  0  0  0  0  0  0
   -9.0671  -30.1837   26.9065 C   0  0  0  0  0  0  0  0  0  0  0  0
   -9.8371  -30.3397   28.0686 C   0  0  0  0  0  0  0  0  0  0  0  0
   -9.5125  -31.6664   29.1200 Cl  0  0  0  0  0  0  0  0  0  0  0  0
  -10.8880  -29.4692   28.3755 C   0  0  0  0  0  0  0  0  0  0  0  0
  -11.1739  -28.3780   27.5506 C   0  0  0  0  0  0  0  0  0  0  0  0
  -10.4128  -28.2722   26.3820 C   0  0  0  0  0  0  0  0  0  0  0  0
  -10.5147  -27.4200   25.3193 N   0  0  0  0  0  0  0  0  0  0  0  0
  -11.3870  -29.7366   18.2360 C   0  0  0  0  0  0  0  0  0  0  0  0
  -10.7641  -29.8880   16.9618 C   0  0  0  0  0  0  0  0  0  0  0  0
  -11.0501  -30.9571   16.1177 C   0  0  0  0  0  0  0  0  0  0  0  0
  -11.9538  -31.8893   16.5635 C   0  0  0  0  0  0  0  0  0  0  0  0
  -12.5310  -31.8380   17.7816 N   0  0  0  0  0  0  0  0  0  0  0  0
  -12.2151  -30.7926   18.5916 C   0  0  0  0  0  0  0  0  0  0  0  0
  -13.1460  -27.6442   17.6305 H   0  0  0  0  0  0  0  0  0  0  0  0
  -13.4105  -27.0677   19.2115 H   0  0  0  0  0  0  0  0  0  0  0  0
  -13.6649  -28.7979   18.7067 H   0  0  0  0  0  0  0  0  0  0  0  0
  -11.3529  -27.4676   16.9338 H   0  0  0  0  0  0  0  0  0  0  0  0
   -9.8433  -27.3709   17.6731 H   0  0  0  0  0  0  0  0  0  0  0  0
  -11.1826  -26.3414   18.1590 H   0  0  0  0  0  0  0  0  0  0  0  0
  -10.3868  -27.3430   20.4284 H   0  0  0  0  0  0  0  0  0  0  0  0
   -9.9538  -26.4829   21.7725 H   0  0  0  0  0  0  0  0  0  0  0  0
  -11.0593  -27.2903   23.0084 H   0  0  0  0  0  0  0  0  0  0  0  0
   -8.2884  -30.8923   26.6453 H   0  0  0  0  0  0  0  0  0  0  0  0
  -11.4719  -29.6286   29.2792 H   0  0  0  0  0  0  0  0  0  0  0  0
  -11.9757  -27.6880   27.7885 H   0  0  0  0  0  0  0  0  0  0  0  0
  -11.2114  -26.6932   25.2485 H   0  0  0  0  0  0  0  0  0  0  0  0
  -10.0648  -29.1614   16.5592 H   0  0  0  0  0  0  0  0  0  0  0  0
  -10.5864  -31.0463   15.1424 H   0  0  0  0  0  0  0  0  0  0  0  0
  -12.2335  -32.7420   15.9523 H   0  0  0  0  0  0  0  0  0  0  0  0
  -12.7312  -30.8123   19.5468 H   0  0  0  0  0  0  0  0  0  0  0  0
  1  2  1  0
  2  3  1  0
  2  4  1  0
  4  5  1  0
  5  6  1  0
  6  7  2  0
  7  8  1  0
  8  9  2  0
  9 10  1  0
 10 11  1  0
 10 12  2  0
 12 13  1  0
 13 14  2  0
 14 15  1  0
  2 16  1  0
 16 17  2  0
 17 18  1  0
 18 19  2  0
 19 20  1  0
 20 21  2  0
 15  6  1  0
 21 16  1  0
 14  8  1  0
  1 22  1  0
  1 23  1  0
  1 24  1  0
  3 25  1  0
  3 26  1  0
  3 27  1  0
  4 28  1  0
  5 29  1  0
  5 30  1  0
  9 31  1  0
 12 32  1  0
 13 33  1  0
 15 34  1  0
 17 35  1  0
 18 36  1  0
 19 37  1  0
 21 38  1  0
M  END
>  <Energy>  (901) 
373.50162935628902

>  <compound_id>  (901) 
16037

>  <target_id>  (901) 
1

>  <reference_id>  (901) 
52

>  <inspiration_ids>  (901) 
[52, 48]

>  <energy_score>  (901) 
312.9539083317745

>  <distance_score>  (901) 
9.356917678986283

>  <path>  (901) 
/opt/xchem-fragalysis-2/maxwin/BulkDock/SCRATCH/511017/C16037-P52/C16037-P52.minimised.mol

>  <scratch_subdir>  (901) 
/opt/xchem-fragalysis-2/maxwin/BulkDock/SCRATCH/511017/C16037-P52

>  <fragmenstein_runtime>  (901) 
11.203037738800049

>  <fragmenstein_outcome>  (901) 
too moved

>  <fragmenstein_mode>  (901) 
expansion

>  <fragmenstein_error>  (901) 


$$$$
C16037-P48
     RDKit          3D

 38 40  0  0  0  0  0  0  0  0999 V2000
   -7.6821  -20.0231   18.0722 C   0  0  0  0  0  0  0  0  0  0  0  0
   -9.1290  -20.3848   17.7283 C   0  0  0  0  0  0  0  0  0  0  0  0
   -9.5698  -18.5394   17.2592 C   0  0  0  0  0  0  0  0  0  0  0  0
   -9.2395  -20.7271   19.6275 N   0  0  0  0  0  0  0  0  0  0  0  0
  -10.5887  -21.3323   20.7141 C   0  0  0  0  0  0  0  0  0  0  0  0
  -11.2327  -21.4181   22.2716 C   0  0  0  0  0  0  0  0  0  0  0  0
  -11.0586  -21.0568   23.5451 N   0  0  0  0  0  0  0  0  0  0  0  0
  -12.0632  -21.7490   24.3728 C   0  0  0  0  0  0  0  0  0  0  0  0
  -12.1923  -22.1566   25.7667 C   0  0  0  0  0  0  0  0  0  0  0  0
  -12.8179  -23.3612   26.0309 C   0  0  0  0  0  0  0  0  0  0  0  0
  -12.2291  -24.4263   27.2450 Cl  0  0  0  0  0  0  0  0  0  0  0  0
  -13.8587  -23.7084   25.2134 C   0  0  0  0  0  0  0  0  0  0  0  0
  -14.1041  -22.9266   24.0961 C   0  0  0  0  0  0  0  0  0  0  0  0
  -12.9896  -22.2893   23.5530 C   0  0  0  0  0  0  0  0  0  0  0  0
  -12.4242  -22.1386   22.3092 N   0  0  0  0  0  0  0  0  0  0  0  0
   -9.5967  -21.5855   16.1799 C   0  0  0  0  0  0  0  0  0  0  0  0
   -9.5113  -22.9761   15.6480 C   0  0  0  0  0  0  0  0  0  0  0  0
  -10.0708  -23.6478   14.4227 C   0  0  0  0  0  0  0  0  0  0  0  0
  -10.6540  -22.9033   13.4378 C   0  0  0  0  0  0  0  0  0  0  0  0
  -10.6270  -21.5895   13.5977 N   0  0  0  0  0  0  0  0  0  0  0  0
   -9.9844  -21.1383   14.8673 C   0  0  0  0  0  0  0  0  0  0  0  0
   -7.1102  -20.8949   17.7827 H   0  0  0  0  0  0  0  0  0  0  0  0
   -7.4064  -19.0026   17.7714 H   0  0  0  0  0  0  0  0  0  0  0  0
   -7.3146  -19.6167   19.0486 H   0  0  0  0  0  0  0  0  0  0  0  0
   -8.7101  -17.8092   17.2949 H   0  0  0  0  0  0  0  0  0  0  0  0
   -9.9757  -18.6077   16.2249 H   0  0  0  0  0  0  0  0  0  0  0  0
  -10.3357  -17.9262   17.7323 H   0  0  0  0  0  0  0  0  0  0  0  0
   -8.9764  -21.6828   19.4968 H   0  0  0  0  0  0  0  0  0  0  0  0
  -10.3174  -22.3588   20.6574 H   0  0  0  0  0  0  0  0  0  0  0  0
  -11.5169  -21.1479   20.2072 H   0  0  0  0  0  0  0  0  0  0  0  0
  -11.6202  -21.7250   26.5827 H   0  0  0  0  0  0  0  0  0  0  0  0
  -14.5148  -24.5426   25.4170 H   0  0  0  0  0  0  0  0  0  0  0  0
  -15.0773  -22.9536   23.6551 H   0  0  0  0  0  0  0  0  0  0  0  0
  -12.8035  -22.5269   21.4633 H   0  0  0  0  0  0  0  0  0  0  0  0
   -8.8034  -23.6998   15.9906 H   0  0  0  0  0  0  0  0  0  0  0  0
   -9.9179  -24.7155   14.2957 H   0  0  0  0  0  0  0  0  0  0  0  0
  -11.0788  -23.3019   12.5304 H   0  0  0  0  0  0  0  0  0  0  0  0
   -9.0144  -21.5784   14.3787 H   0  0  0  0  0  0  0  0  0  0  0  0
  1  2  1  0
  2  3  1  0
  2  4  1  0
  4  5  1  0
  5  6  1  0
  6  7  2  0
  7  8  1  0
  8  9  2  0
  9 10  1  0
 10 11  1  0
 10 12  2  0
 12 13  1  0
 13 14  2  0
 14 15  1  0
  2 16  1  0
 16 17  2  0
 17 18  1  0
 18 19  2  0
 19 20  1  0
 20 21  2  0
 15  6  1  0
 21 16  1  0
 14  8  1  0
  1 22  1  0
  1 23  1  0
  1 24  1  0
  3 25  1  0
  3 26  1  0
  3 27  1  0
  4 28  1  0
  5 29  1  0
  5 30  1  0
  9 31  1  0
 12 32  1  0
 13 33  1  0
 15 34  1  0
 17 35  1  0
 18 36  1  0
 19 37  1  0
 21 38  1  0
M  END
>  <Energy>  (902) 
564.41223754321129

>  <compound_id>  (902) 
16037

>  <target_id>  (902) 
1

>  <reference_id>  (902) 
48

>  <inspiration_ids>  (902) 
[52, 48]

>  <energy_score>  (902) 
503.8645165186984

>  <distance_score>  (902) 
8.209109047366306

>  <path>  (902) 
/opt/xchem-fragalysis-2/maxwin/BulkDock/SCRATCH/511017/C16037-P48/C16037-P48.minimised.mol

>  <scratch_subdir>  (902) 
/opt/xchem-fragalysis-2/maxwin/BulkDock/SCRATCH/511017/C16037-P48

>  <fragmenstein_runtime>  (902) 
4.774692535400391

>  <fragmenstein_outcome>  (902) 
too moved

>  <fragmenstein_mode>  (902) 
expansion

>  <fragmenstein_error>  (902) 


$$$$
C16038-P52
     RDKit          3D

 42 44  0  0  0  0  0  0  0  0999 V2000
  -12.4619  -23.6168   26.2023 C   0  0  0  0  0  0  0  0  0  0  0  0
  -12.8136  -22.7843   25.0966 O   0  0  0  0  0  0  0  0  0  0  0  0
  -11.7866  -22.3956   24.2811 C   0  0  0  0  0  0  0  0  0  0  0  0
  -10.5099  -22.8386   24.3893 C   0  0  0  0  0  0  0  0  0  0  0  0
   -9.5382  -22.3386   23.4639 C   0  0  0  0  0  0  0  0  0  0  0  0
   -9.8643  -21.6750   22.2867 C   0  0  0  0  0  0  0  0  0  0  0  0
   -9.1242  -21.7215   21.1339 N   0  0  0  0  0  0  0  0  0  0  0  0
   -9.6448  -21.3206   20.0142 C   0  0  0  0  0  0  0  0  0  0  0  0
   -8.9621  -21.1668   18.1195 C   0  0  0  0  0  0  0  0  0  0  0  0
   -9.4477  -21.9845   16.4323 N   0  0  0  0  0  0  0  0  0  0  0  0
   -9.5400  -23.1625   15.1426 C   0  0  0  0  0  0  0  0  0  0  0  0
   -8.8658  -22.9006   13.7691 C   0  0  0  0  0  0  0  0  0  0  0  0
   -9.9300  -24.7765   15.0239 C   0  0  0  0  0  0  0  0  0  0  0  0
  -10.5327  -25.3257   13.7035 C   0  0  0  0  0  0  0  0  0  0  0  0
  -11.8860  -25.2111   13.3754 C   0  0  0  0  0  0  0  0  0  0  0  0
  -12.3816  -25.7507   12.1866 C   0  0  0  0  0  0  0  0  0  0  0  0
  -11.5026  -26.3871   11.3341 C   0  0  0  0  0  0  0  0  0  0  0  0
  -10.1952  -26.5398   11.6070 N   0  0  0  0  0  0  0  0  0  0  0  0
   -9.7503  -26.0261   12.7816 C   0  0  0  0  0  0  0  0  0  0  0  0
  -11.0730  -21.2131   20.6325 N   0  0  0  0  0  0  0  0  0  0  0  0
  -11.1625  -21.4691   22.0255 C   0  0  0  0  0  0  0  0  0  0  0  0
  -12.0981  -21.7232   23.0926 C   0  0  0  0  0  0  0  0  0  0  0  0
  -11.9128  -23.0438   26.9560 H   0  0  0  0  0  0  0  0  0  0  0  0
  -11.9025  -24.5075   25.8971 H   0  0  0  0  0  0  0  0  0  0  0  0
  -13.3820  -24.0000   26.6495 H   0  0  0  0  0  0  0  0  0  0  0  0
  -10.1686  -23.4883   25.1853 H   0  0  0  0  0  0  0  0  0  0  0  0
   -8.5155  -22.7169   23.4973 H   0  0  0  0  0  0  0  0  0  0  0  0
   -7.9354  -20.8339   17.9749 H   0  0  0  0  0  0  0  0  0  0  0  0
   -9.3700  -20.2033   17.8484 H   0  0  0  0  0  0  0  0  0  0  0  0
   -8.5083  -22.3738   16.4801 H   0  0  0  0  0  0  0  0  0  0  0  0
  -10.4402  -22.7491   14.7466 H   0  0  0  0  0  0  0  0  0  0  0  0
   -9.5359  -22.3221   13.1153 H   0  0  0  0  0  0  0  0  0  0  0  0
   -7.8723  -22.4828   13.8457 H   0  0  0  0  0  0  0  0  0  0  0  0
   -8.7295  -23.7786   13.1403 H   0  0  0  0  0  0  0  0  0  0  0  0
   -9.0458  -25.3749   15.2130 H   0  0  0  0  0  0  0  0  0  0  0  0
  -10.6212  -25.1370   15.7800 H   0  0  0  0  0  0  0  0  0  0  0  0
  -12.5858  -24.7204   14.0390 H   0  0  0  0  0  0  0  0  0  0  0  0
  -13.4333  -25.6719   11.9364 H   0  0  0  0  0  0  0  0  0  0  0  0
  -11.8351  -26.8139   10.3932 H   0  0  0  0  0  0  0  0  0  0  0  0
   -8.6929  -26.1999   12.9636 H   0  0  0  0  0  0  0  0  0  0  0  0
  -11.8778  -21.0181   20.0587 H   0  0  0  0  0  0  0  0  0  0  0  0
  -13.1490  -21.6250   23.0205 H   0  0  0  0  0  0  0  0  0  0  0  0
  1  2  1  0
  2  3  1  0
  3  4  2  0
  4  5  1  0
  5  6  2  0
  6  7  1  0
  7  8  2  0
  8  9  1  0
  9 10  1  0
 10 11  1  0
 11 12  1  0
 11 13  1  0
 13 14  1  0
 14 15  2  0
 15 16  1  0
 16 17  2  0
 17 18  1  0
 18 19  2  0
  8 20  1  0
 20 21  1  0
 21 22  2  0
 22  3  1  0
 21  6  1  0
 19 14  1  0
  1 23  1  0
  1 24  1  0
  1 25  1  0
  4 26  1  0
  5 27  1  0
  9 28  1  0
  9 29  1  0
 10 30  1  0
 11 31  1  0
 12 32  1  0
 12 33  1  0
 12 34  1  0
 13 35  1  0
 13 36  1  0
 15 37  1  0
 16 38  1  0
 17 39  1  0
 19 40  1  0
 20 41  1  0
 22 42  1  0
M  END
>  <Energy>  (903) 
401.04914246494121

>  <compound_id>  (903) 
16038

>  <target_id>  (903) 
1

>  <reference_id>  (903) 
52

>  <inspiration_ids>  (903) 
[52, 48]

>  <energy_score>  (903) 
319.5693148635355

>  <distance_score>  (903) 
8.588141005213258

>  <path>  (903) 
/opt/xchem-fragalysis-2/maxwin/BulkDock/SCRATCH/511017/C16038-P52/C16038-P52.minimised.mol

>  <scratch_subdir>  (903) 
/opt/xchem-fragalysis-2/maxwin/BulkDock/SCRATCH/511017/C16038-P52

>  <fragmenstein_runtime>  (903) 
14.320411205291748

>  <fragmenstein_outcome>  (903) 
too moved

>  <fragmenstein_mode>  (903) 
expansion

>  <fragmenstein_error>  (903) 


$$$$
C16038-P48
     RDKit          3D

 42 44  0  0  0  0  0  0  0  0999 V2000
  -11.6131  -27.6233   30.1963 C   0  0  0  0  0  0  0  0  0  0  0  0
  -12.0734  -27.3866   28.8697 O   0  0  0  0  0  0  0  0  0  0  0  0
  -12.0184  -26.0918   28.4217 C   0  0  0  0  0  0  0  0  0  0  0  0
  -11.4664  -25.0118   29.1147 C   0  0  0  0  0  0  0  0  0  0  0  0
  -11.4564  -23.7329   28.5382 C   0  0  0  0  0  0  0  0  0  0  0  0
  -12.0082  -23.5471   27.2680 C   0  0  0  0  0  0  0  0  0  0  0  0
  -12.0523  -22.4394   26.4729 N   0  0  0  0  0  0  0  0  0  0  0  0
  -12.5670  -22.8300   25.3129 C   0  0  0  0  0  0  0  0  0  0  0  0
  -12.2433  -22.2340   23.9089 C   0  0  0  0  0  0  0  0  0  0  0  0
  -13.0800  -22.7088   22.7591 N   0  0  0  0  0  0  0  0  0  0  0  0
  -12.3875  -22.9417   21.1883 C   0  0  0  0  0  0  0  0  0  0  0  0
  -11.4297  -21.7337   21.0548 C   0  0  0  0  0  0  0  0  0  0  0  0
  -12.6921  -24.4874   20.0148 C   0  0  0  0  0  0  0  0  0  0  0  0
  -13.4846  -25.3991   18.6375 C   0  0  0  0  0  0  0  0  0  0  0  0
  -14.4779  -24.9516   17.7474 C   0  0  0  0  0  0  0  0  0  0  0  0
  -14.7659  -25.6071   16.5358 C   0  0  0  0  0  0  0  0  0  0  0  0
  -14.0376  -26.7202   16.1921 C   0  0  0  0  0  0  0  0  0  0  0  0
  -13.0699  -27.2080   16.9785 N   0  0  0  0  0  0  0  0  0  0  0  0
  -12.8196  -26.5443   18.1459 C   0  0  0  0  0  0  0  0  0  0  0  0
  -13.2579  -24.0013   25.5594 N   0  0  0  0  0  0  0  0  0  0  0  0
  -12.6286  -24.6098   26.6369 C   0  0  0  0  0  0  0  0  0  0  0  0
  -12.6150  -25.9083   27.1595 C   0  0  0  0  0  0  0  0  0  0  0  0
  -10.5429  -27.4108   30.2857 H   0  0  0  0  0  0  0  0  0  0  0  0
  -11.7606  -28.6851   30.4155 H   0  0  0  0  0  0  0  0  0  0  0  0
  -12.1942  -27.0486   30.9252 H   0  0  0  0  0  0  0  0  0  0  0  0
  -11.0367  -25.1193   30.1044 H   0  0  0  0  0  0  0  0  0  0  0  0
  -11.0734  -22.8634   29.0507 H   0  0  0  0  0  0  0  0  0  0  0  0
  -11.2039  -22.4575   23.6719 H   0  0  0  0  0  0  0  0  0  0  0  0
  -12.3149  -21.1460   24.0058 H   0  0  0  0  0  0  0  0  0  0  0  0
  -13.5828  -21.8582   22.6101 H   0  0  0  0  0  0  0  0  0  0  0  0
  -11.5298  -23.4771   21.4146 H   0  0  0  0  0  0  0  0  0  0  0  0
  -11.6553  -21.1415   20.2148 H   0  0  0  0  0  0  0  0  0  0  0  0
  -11.4889  -21.0490   21.9017 H   0  0  0  0  0  0  0  0  0  0  0  0
  -10.3675  -21.9722   20.9765 H   0  0  0  0  0  0  0  0  0  0  0  0
  -12.9125  -23.7236   19.3429 H   0  0  0  0  0  0  0  0  0  0  0  0
  -13.2209  -25.2307   20.5433 H   0  0  0  0  0  0  0  0  0  0  0  0
  -15.0621  -24.0691   17.9018 H   0  0  0  0  0  0  0  0  0  0  0  0
  -15.5390  -25.2297   15.8741 H   0  0  0  0  0  0  0  0  0  0  0  0
  -14.2139  -27.2565   15.2657 H   0  0  0  0  0  0  0  0  0  0  0  0
  -11.9571  -26.9513   18.6445 H   0  0  0  0  0  0  0  0  0  0  0  0
  -13.8476  -24.4549   24.8787 H   0  0  0  0  0  0  0  0  0  0  0  0
  -13.0936  -26.7365   26.6496 H   0  0  0  0  0  0  0  0  0  0  0  0
  1  2  1  0
  2  3  1  0
  3  4  2  0
  4  5  1  0
  5  6  2  0
  6  7  1  0
  7  8  2  0
  8  9  1  0
  9 10  1  0
 10 11  1  0
 11 12  1  0
 11 13  1  0
 13 14  1  0
 14 15  2  0
 15 16  1  0
 16 17  2  0
 17 18  1  0
 18 19  2  0
  8 20  1  0
 20 21  1  0
 21 22  2  0
 22  3  1  0
 21  6  1  0
 19 14  1  0
  1 23  1  0
  1 24  1  0
  1 25  1  0
  4 26  1  0
  5 27  1  0
  9 28  1  0
  9 29  1  0
 10 30  1  0
 11 31  1  0
 12 32  1  0
 12 33  1  0
 12 34  1  0
 13 35  1  0
 13 36  1  0
 15 37  1  0
 16 38  1  0
 17 39  1  0
 19 40  1  0
 20 41  1  0
 22 42  1  0
M  END
>  <Energy>  (904) 
272.56566818092608

>  <compound_id>  (904) 
16038

>  <target_id>  (904) 
1

>  <reference_id>  (904) 
48

>  <inspiration_ids>  (904) 
[52, 48]

>  <energy_score>  (904) 
191.0858405795185

>  <distance_score>  (904) 
7.287722132366844

>  <path>  (904) 
/opt/xchem-fragalysis-2/maxwin/BulkDock/SCRATCH/511017/C16038-P48/C16038-P48.minimised.mol

>  <scratch_subdir>  (904) 
/opt/xchem-fragalysis-2/maxwin/BulkDock/SCRATCH/511017/C16038-P48

>  <fragmenstein_runtime>  (904) 
7.361820459365845

>  <fragmenstein_outcome>  (904) 
too moved

>  <fragmenstein_mode>  (904) 
expansion

>  <fragmenstein_error>  (904) 


$$$$
C16040-P52
     RDKit          3D

 39 42  0  0  0  0  0  0  0  0999 V2000
  -13.3828  -25.8182   18.9260 C   0  0  0  0  0  0  0  0  0  0  0  0
  -13.7203  -25.1554   17.8249 C   0  0  0  0  0  0  0  0  0  0  0  0
  -13.5850  -23.8491   17.9606 N   0  0  0  0  0  0  0  0  0  0  0  0
  -12.8761  -23.1843   19.0771 C   0  0  0  0  0  0  0  0  0  0  0  0
  -12.4556  -23.6653   20.2371 C   0  0  0  0  0  0  0  0  0  0  0  0
  -11.9989  -22.5159   21.5305 C   0  0  0  0  0  0  0  0  0  0  0  0
  -12.8578  -22.4321   22.8916 C   0  0  0  0  0  0  0  0  0  0  0  0
  -12.3455  -22.1301   24.2533 C   0  0  0  0  0  0  0  0  0  0  0  0
  -11.0971  -22.7912   24.3611 N   0  0  0  0  0  0  0  0  0  0  0  0
  -10.9459  -23.0338   25.7323 C   0  0  0  0  0  0  0  0  0  0  0  0
  -11.2355  -22.2239   26.7441 N   0  0  0  0  0  0  0  0  0  0  0  0
  -11.1870  -22.9599   27.8988 C   0  0  0  0  0  0  0  0  0  0  0  0
  -11.3141  -22.5620   29.2399 C   0  0  0  0  0  0  0  0  0  0  0  0
  -11.2378  -23.5370   30.2432 C   0  0  0  0  0  0  0  0  0  0  0  0
  -11.0644  -24.8818   29.9108 C   0  0  0  0  0  0  0  0  0  0  0  0
  -10.9669  -25.2952   28.5735 C   0  0  0  0  0  0  0  0  0  0  0  0
  -11.0100  -24.2990   27.5946 C   0  0  0  0  0  0  0  0  0  0  0  0
  -10.9082  -24.3193   26.2203 N   0  0  0  0  0  0  0  0  0  0  0  0
  -10.1836  -22.0176   23.3420 C   0  0  0  0  0  0  0  0  0  0  0  0
  -10.7028  -21.8143   21.8979 C   0  0  0  0  0  0  0  0  0  0  0  0
  -13.0351  -24.9676   20.1150 C   0  0  0  0  0  0  0  0  0  0  0  0
  -13.6471  -26.8616   19.0227 H   0  0  0  0  0  0  0  0  0  0  0  0
  -14.1483  -25.5643   16.9257 H   0  0  0  0  0  0  0  0  0  0  0  0
  -12.7720  -22.1118   18.9491 H   0  0  0  0  0  0  0  0  0  0  0  0
  -12.1077  -21.7446   20.8405 H   0  0  0  0  0  0  0  0  0  0  0  0
  -13.3853  -21.5234   22.9770 H   0  0  0  0  0  0  0  0  0  0  0  0
  -13.5580  -23.2486   22.9782 H   0  0  0  0  0  0  0  0  0  0  0  0
  -13.0997  -22.4956   24.9680 H   0  0  0  0  0  0  0  0  0  0  0  0
  -12.2200  -21.0505   24.4266 H   0  0  0  0  0  0  0  0  0  0  0  0
  -11.4423  -21.5120   29.4832 H   0  0  0  0  0  0  0  0  0  0  0  0
  -11.3136  -23.2368   31.2867 H   0  0  0  0  0  0  0  0  0  0  0  0
  -10.9965  -25.6200   30.7068 H   0  0  0  0  0  0  0  0  0  0  0  0
  -10.8492  -26.3398   28.3165 H   0  0  0  0  0  0  0  0  0  0  0  0
  -10.8004  -25.1319   25.6425 H   0  0  0  0  0  0  0  0  0  0  0  0
   -9.1635  -22.4078   23.3566 H   0  0  0  0  0  0  0  0  0  0  0  0
  -10.1256  -20.9487   23.5426 H   0  0  0  0  0  0  0  0  0  0  0  0
   -9.9244  -21.8662   21.1300 H   0  0  0  0  0  0  0  0  0  0  0  0
  -10.9605  -20.7448   21.8740 H   0  0  0  0  0  0  0  0  0  0  0  0
  -13.5056  -25.3567   21.0142 H   0  0  0  0  0  0  0  0  0  0  0  0
  1  2  2  0
  2  3  1  0
  3  4  2  0
  4  5  1  0
  5  6  1  0
  6  7  1  0
  7  8  1  0
  8  9  1  0
  9 10  1  0
 10 11  2  0
 11 12  1  0
 12 13  2  0
 13 14  1  0
 14 15  2  0
 15 16  1  0
 16 17  2  0
 17 18  1  0
  9 19  1  0
 19 20  1  0
  5 21  2  0
 21  1  1  0
 20  6  1  0
 18 10  1  0
 17 12  1  0
  1 22  1  0
  2 23  1  0
  4 24  1  0
  6 25  1  0
  7 26  1  0
  7 27  1  0
  8 28  1  0
  8 29  1  0
 13 30  1  0
 14 31  1  0
 15 32  1  0
 16 33  1  0
 18 34  1  0
 19 35  1  0
 19 36  1  0
 20 37  1  0
 20 38  1  0
 21 39  1  0
M  END
>  <Energy>  (905) 
182.39731757763585

>  <compound_id>  (905) 
16040

>  <target_id>  (905) 
1

>  <reference_id>  (905) 
52

>  <inspiration_ids>  (905) 
[52, 48]

>  <energy_score>  (905) 
135.43579878288165

>  <distance_score>  (905) 
7.691438419893928

>  <path>  (905) 
/opt/xchem-fragalysis-2/maxwin/BulkDock/SCRATCH/511017/C16040-P52/C16040-P52.minimised.mol

>  <scratch_subdir>  (905) 
/opt/xchem-fragalysis-2/maxwin/BulkDock/SCRATCH/511017/C16040-P52

>  <fragmenstein_runtime>  (905) 
9.440380811691284

>  <fragmenstein_outcome>  (905) 
too moved

>  <fragmenstein_mode>  (905) 
expansion

>  <fragmenstein_error>  (905) 


$$$$
C16040-P48
     RDKit          3D

 39 42  0  0  0  0  0  0  0  0999 V2000
  -14.3653  -25.0597   17.2674 C   0  0  0  0  0  0  0  0  0  0  0  0
  -13.6662  -26.1006   16.7680 C   0  0  0  0  0  0  0  0  0  0  0  0
  -12.7622  -26.6543   17.5611 N   0  0  0  0  0  0  0  0  0  0  0  0
  -12.4603  -26.0083   18.8071 C   0  0  0  0  0  0  0  0  0  0  0  0
  -13.0373  -24.8497   19.6042 C   0  0  0  0  0  0  0  0  0  0  0  0
  -12.4542  -23.3668   20.7744 C   0  0  0  0  0  0  0  0  0  0  0  0
  -13.1979  -22.6934   22.3025 C   0  0  0  0  0  0  0  0  0  0  0  0
  -13.4523  -22.8304   23.8033 C   0  0  0  0  0  0  0  0  0  0  0  0
  -12.1258  -22.5622   24.3825 N   0  0  0  0  0  0  0  0  0  0  0  0
  -12.0023  -22.8549   25.7717 C   0  0  0  0  0  0  0  0  0  0  0  0
  -12.0464  -22.0605   26.8287 N   0  0  0  0  0  0  0  0  0  0  0  0
  -11.7843  -22.8202   27.9592 C   0  0  0  0  0  0  0  0  0  0  0  0
  -11.8014  -22.4919   29.3261 C   0  0  0  0  0  0  0  0  0  0  0  0
  -11.8005  -23.5454   30.2677 C   0  0  0  0  0  0  0  0  0  0  0  0
  -11.5825  -24.8658   29.8742 C   0  0  0  0  0  0  0  0  0  0  0  0
  -11.4212  -25.1856   28.5242 C   0  0  0  0  0  0  0  0  0  0  0  0
  -11.5776  -24.1386   27.6095 C   0  0  0  0  0  0  0  0  0  0  0  0
  -11.5573  -24.0875   26.2441 N   0  0  0  0  0  0  0  0  0  0  0  0
  -10.9785  -21.8686   23.2363 C   0  0  0  0  0  0  0  0  0  0  0  0
  -11.1525  -22.1617   21.3772 C   0  0  0  0  0  0  0  0  0  0  0  0
  -14.1526  -24.7983   18.6796 C   0  0  0  0  0  0  0  0  0  0  0  0
  -15.1995  -24.6162   16.7371 H   0  0  0  0  0  0  0  0  0  0  0  0
  -13.8120  -26.5234   15.7841 H   0  0  0  0  0  0  0  0  0  0  0  0
  -11.4971  -26.4495   18.9532 H   0  0  0  0  0  0  0  0  0  0  0  0
  -12.6809  -22.6188   20.0171 H   0  0  0  0  0  0  0  0  0  0  0  0
  -12.2627  -22.9675   22.5804 H   0  0  0  0  0  0  0  0  0  0  0  0
  -12.9893  -21.6323   22.3156 H   0  0  0  0  0  0  0  0  0  0  0  0
  -14.1771  -22.0763   24.1152 H   0  0  0  0  0  0  0  0  0  0  0  0
  -13.8533  -23.8008   24.1102 H   0  0  0  0  0  0  0  0  0  0  0  0
  -11.9938  -21.4704   29.6242 H   0  0  0  0  0  0  0  0  0  0  0  0
  -11.9628  -23.3147   31.3183 H   0  0  0  0  0  0  0  0  0  0  0  0
  -11.5434  -25.6485   30.6278 H   0  0  0  0  0  0  0  0  0  0  0  0
  -11.2499  -26.2071   28.2085 H   0  0  0  0  0  0  0  0  0  0  0  0
  -11.1861  -24.8369   25.7006 H   0  0  0  0  0  0  0  0  0  0  0  0
  -10.0036  -22.2867   23.4544 H   0  0  0  0  0  0  0  0  0  0  0  0
  -11.0329  -20.7921   23.3888 H   0  0  0  0  0  0  0  0  0  0  0  0
  -11.5081  -21.1786   21.0512 H   0  0  0  0  0  0  0  0  0  0  0  0
  -10.1866  -22.1846   20.8843 H   0  0  0  0  0  0  0  0  0  0  0  0
  -14.7228  -25.7435   19.0298 H   0  0  0  0  0  0  0  0  0  0  0  0
  1  2  2  0
  2  3  1  0
  3  4  2  0
  4  5  1  0
  5  6  1  0
  6  7  1  0
  7  8  1  0
  8  9  1  0
  9 10  1  0
 10 11  2  0
 11 12  1  0
 12 13  2  0
 13 14  1  0
 14 15  2  0
 15 16  1  0
 16 17  2  0
 17 18  1  0
  9 19  1  0
 19 20  1  0
  5 21  2  0
 21  1  1  0
 20  6  1  0
 18 10  1  0
 17 12  1  0
  1 22  1  0
  2 23  1  0
  4 24  1  0
  6 25  1  0
  7 26  1  0
  7 27  1  0
  8 28  1  0
  8 29  1  0
 13 30  1  0
 14 31  1  0
 15 32  1  0
 16 33  1  0
 18 34  1  0
 19 35  1  0
 19 36  1  0
 20 37  1  0
 20 38  1  0
 21 39  1  0
M  END
>  <Energy>  (906) 
505.786225961257

>  <compound_id>  (906) 
16040

>  <target_id>  (906) 
1

>  <reference_id>  (906) 
48

>  <inspiration_ids>  (906) 
[52, 48]

>  <energy_score>  (906) 
458.8247071665052

>  <distance_score>  (906) 
7.2034062299288

>  <path>  (906) 
/opt/xchem-fragalysis-2/maxwin/BulkDock/SCRATCH/511017/C16040-P48/C16040-P48.minimised.mol

>  <scratch_subdir>  (906) 
/opt/xchem-fragalysis-2/maxwin/BulkDock/SCRATCH/511017/C16040-P48

>  <fragmenstein_runtime>  (906) 
6.014156341552734

>  <fragmenstein_outcome>  (906) 
too moved

>  <fragmenstein_mode>  (906) 
expansion

>  <fragmenstein_error>  (906) 


$$$$
C16041-P52
     RDKit          3D

 39 42  0  0  0  0  0  0  0  0999 V2000
  -11.8156  -24.7877   29.3069 F   0  0  0  0  0  0  0  0  0  0  0  0
  -12.3912  -24.6301   28.1081 C   0  0  0  0  0  0  0  0  0  0  0  0
  -13.3704  -25.5336   27.7042 C   0  0  0  0  0  0  0  0  0  0  0  0
  -14.0011  -25.3948   26.4514 C   0  0  0  0  0  0  0  0  0  0  0  0
  -13.6194  -24.3365   25.6067 C   0  0  0  0  0  0  0  0  0  0  0  0
  -13.9958  -23.9951   24.3068 N   0  0  0  0  0  0  0  0  0  0  0  0
  -13.2361  -22.9912   23.8605 C   0  0  0  0  0  0  0  0  0  0  0  0
  -12.7372  -22.4951   22.5269 N   0  0  0  0  0  0  0  0  0  0  0  0
  -12.0476  -21.2454   22.8563 C   0  0  0  0  0  0  0  0  0  0  0  0
  -10.6743  -21.4566   23.2124 C   0  0  0  0  0  0  0  0  0  0  0  0
   -9.9431  -21.6898   22.0050 C   0  0  0  0  0  0  0  0  0  0  0  0
  -10.7811  -22.0391   20.7887 C   0  0  0  0  0  0  0  0  0  0  0  0
  -12.2521  -23.0314   20.7853 C   0  0  0  0  0  0  0  0  0  0  0  0
  -12.9873  -24.4823   19.6654 C   0  0  0  0  0  0  0  0  0  0  0  0
  -13.2068  -25.8918   19.3955 C   0  0  0  0  0  0  0  0  0  0  0  0
  -14.0604  -26.7329   18.4904 C   0  0  0  0  0  0  0  0  0  0  0  0
  -14.5673  -26.1076   17.4093 C   0  0  0  0  0  0  0  0  0  0  0  0
  -14.2581  -24.8334   17.3064 N   0  0  0  0  0  0  0  0  0  0  0  0
  -13.5214  -24.2320   18.3909 C   0  0  0  0  0  0  0  0  0  0  0  0
  -12.6523  -22.5141   25.0731 N   0  0  0  0  0  0  0  0  0  0  0  0
  -12.6599  -23.4617   26.0624 C   0  0  0  0  0  0  0  0  0  0  0  0
  -12.0115  -23.5567   27.3027 C   0  0  0  0  0  0  0  0  0  0  0  0
  -13.6495  -26.3507   28.3627 H   0  0  0  0  0  0  0  0  0  0  0  0
  -14.7620  -26.0973   26.1273 H   0  0  0  0  0  0  0  0  0  0  0  0
  -11.9914  -20.5388   22.0572 H   0  0  0  0  0  0  0  0  0  0  0  0
  -12.4895  -20.7172   23.6932 H   0  0  0  0  0  0  0  0  0  0  0  0
  -10.5249  -22.3049   23.8782 H   0  0  0  0  0  0  0  0  0  0  0  0
  -10.3575  -20.4821   23.5652 H   0  0  0  0  0  0  0  0  0  0  0  0
   -9.4092  -20.8379   21.7623 H   0  0  0  0  0  0  0  0  0  0  0  0
   -9.0438  -22.2050   22.3135 H   0  0  0  0  0  0  0  0  0  0  0  0
   -9.9989  -22.2305   20.0854 H   0  0  0  0  0  0  0  0  0  0  0  0
  -11.1590  -21.0726   20.4648 H   0  0  0  0  0  0  0  0  0  0  0  0
  -12.6746  -22.3788   20.0643 H   0  0  0  0  0  0  0  0  0  0  0  0
  -12.2973  -26.2964   18.8207 H   0  0  0  0  0  0  0  0  0  0  0  0
  -14.0782  -27.8106   18.5956 H   0  0  0  0  0  0  0  0  0  0  0  0
  -15.1337  -26.5780   16.6211 H   0  0  0  0  0  0  0  0  0  0  0  0
  -13.1062  -23.3670   17.9895 H   0  0  0  0  0  0  0  0  0  0  0  0
  -12.1918  -21.6323   25.2059 H   0  0  0  0  0  0  0  0  0  0  0  0
  -11.2803  -22.8300   27.6370 H   0  0  0  0  0  0  0  0  0  0  0  0
  1  2  1  0
  2  3  2  0
  3  4  1  0
  4  5  2  0
  5  6  1  0
  6  7  2  0
  7  8  1  0
  8  9  1  0
  9 10  1  0
 10 11  1  0
 11 12  1  0
 12 13  1  0
 13 14  1  0
 14 15  2  0
 15 16  1  0
 16 17  2  0
 17 18  1  0
 18 19  2  0
  7 20  1  0
 20 21  1  0
 21 22  2  0
 22  2  1  0
 21  5  1  0
 13  8  1  0
 19 14  1  0
  3 23  1  0
  4 24  1  0
  9 25  1  0
  9 26  1  0
 10 27  1  0
 10 28  1  0
 11 29  1  0
 11 30  1  0
 12 31  1  0
 12 32  1  0
 13 33  1  0
 15 34  1  0
 16 35  1  0
 17 36  1  0
 19 37  1  0
 20 38  1  0
 22 39  1  0
M  END
>  <Energy>  (907) 
398.22662223081642

>  <compound_id>  (907) 
16041

>  <target_id>  (907) 
1

>  <reference_id>  (907) 
52

>  <inspiration_ids>  (907) 
[52, 48]

>  <energy_score>  (907) 
354.60671818029186

>  <distance_score>  (907) 
8.34459232039929

>  <path>  (907) 
/opt/xchem-fragalysis-2/maxwin/BulkDock/SCRATCH/511017/C16041-P52/C16041-P52.minimised.mol

>  <scratch_subdir>  (907) 
/opt/xchem-fragalysis-2/maxwin/BulkDock/SCRATCH/511017/C16041-P52

>  <fragmenstein_runtime>  (907) 
9.070735454559326

>  <fragmenstein_outcome>  (907) 
too moved

>  <fragmenstein_mode>  (907) 
expansion

>  <fragmenstein_error>  (907) 


$$$$
C16041-P48
     RDKit          3D

 39 42  0  0  0  0  0  0  0  0999 V2000
  -11.1464  -25.1629   28.9304 F   0  0  0  0  0  0  0  0  0  0  0  0
  -11.9283  -25.1275   27.8440 C   0  0  0  0  0  0  0  0  0  0  0  0
  -12.5130  -26.3107   27.3916 C   0  0  0  0  0  0  0  0  0  0  0  0
  -13.3248  -26.3197   26.2372 C   0  0  0  0  0  0  0  0  0  0  0  0
  -13.5310  -25.1080   25.5432 C   0  0  0  0  0  0  0  0  0  0  0  0
  -14.0536  -24.8240   24.2726 N   0  0  0  0  0  0  0  0  0  0  0  0
  -13.6986  -23.5589   23.9699 C   0  0  0  0  0  0  0  0  0  0  0  0
  -13.0702  -22.8758   22.7556 N   0  0  0  0  0  0  0  0  0  0  0  0
  -12.0311  -21.9542   23.3891 C   0  0  0  0  0  0  0  0  0  0  0  0
  -10.7198  -21.5995   22.7801 C   0  0  0  0  0  0  0  0  0  0  0  0
  -10.6171  -21.6774   21.3066 C   0  0  0  0  0  0  0  0  0  0  0  0
  -11.8197  -22.1852   20.7226 C   0  0  0  0  0  0  0  0  0  0  0  0
  -12.4789  -23.4854   21.0050 C   0  0  0  0  0  0  0  0  0  0  0  0
  -13.2549  -24.7746   19.6936 C   0  0  0  0  0  0  0  0  0  0  0  0
  -13.7796  -26.1194   19.7305 C   0  0  0  0  0  0  0  0  0  0  0  0
  -14.3045  -26.9774   18.6834 C   0  0  0  0  0  0  0  0  0  0  0  0
  -14.5128  -26.4823   17.4365 C   0  0  0  0  0  0  0  0  0  0  0  0
  -14.2867  -25.2058   17.2358 N   0  0  0  0  0  0  0  0  0  0  0  0
  -13.7466  -24.5069   18.3149 C   0  0  0  0  0  0  0  0  0  0  0  0
  -13.5399  -23.0002   25.2427 N   0  0  0  0  0  0  0  0  0  0  0  0
  -12.9899  -23.9533   26.0772 C   0  0  0  0  0  0  0  0  0  0  0  0
  -12.1578  -23.9091   27.2047 C   0  0  0  0  0  0  0  0  0  0  0  0
  -12.3242  -27.2338   27.9344 H   0  0  0  0  0  0  0  0  0  0  0  0
  -13.7482  -27.2448   25.8584 H   0  0  0  0  0  0  0  0  0  0  0  0
  -12.5213  -21.0587   23.7666 H   0  0  0  0  0  0  0  0  0  0  0  0
  -11.6747  -22.4789   24.2610 H   0  0  0  0  0  0  0  0  0  0  0  0
   -9.9113  -22.1810   23.2175 H   0  0  0  0  0  0  0  0  0  0  0  0
  -10.5407  -20.5967   23.1410 H   0  0  0  0  0  0  0  0  0  0  0  0
  -10.7933  -20.7224   20.8870 H   0  0  0  0  0  0  0  0  0  0  0  0
   -9.6619  -21.9389   20.9203 H   0  0  0  0  0  0  0  0  0  0  0  0
  -12.0619  -21.8439   19.7451 H   0  0  0  0  0  0  0  0  0  0  0  0
  -12.3670  -21.4865   21.3000 H   0  0  0  0  0  0  0  0  0  0  0  0
  -13.2851  -22.9604   20.7453 H   0  0  0  0  0  0  0  0  0  0  0  0
  -13.8867  -26.6933   20.6375 H   0  0  0  0  0  0  0  0  0  0  0  0
  -14.5820  -28.0007   18.9184 H   0  0  0  0  0  0  0  0  0  0  0  0
  -14.9111  -27.0645   16.6168 H   0  0  0  0  0  0  0  0  0  0  0  0
  -13.5910  -23.5378   17.9164 H   0  0  0  0  0  0  0  0  0  0  0  0
  -13.4563  -22.0092   25.4066 H   0  0  0  0  0  0  0  0  0  0  0  0
  -11.7542  -22.9816   27.5953 H   0  0  0  0  0  0  0  0  0  0  0  0
  1  2  1  0
  2  3  2  0
  3  4  1  0
  4  5  2  0
  5  6  1  0
  6  7  2  0
  7  8  1  0
  8  9  1  0
  9 10  1  0
 10 11  1  0
 11 12  1  0
 12 13  1  0
 13 14  1  0
 14 15  2  0
 15 16  1  0
 16 17  2  0
 17 18  1  0
 18 19  2  0
  7 20  1  0
 20 21  1  0
 21 22  2  0
 22  2  1  0
 21  5  1  0
 13  8  1  0
 19 14  1  0
  3 23  1  0
  4 24  1  0
  9 25  1  0
  9 26  1  0
 10 27  1  0
 10 28  1  0
 11 29  1  0
 11 30  1  0
 12 31  1  0
 12 32  1  0
 13 33  1  0
 15 34  1  0
 16 35  1  0
 17 36  1  0
 19 37  1  0
 20 38  1  0
 22 39  1  0
M  END
>  <Energy>  (908) 
354.59544534010917

>  <compound_id>  (908) 
16041

>  <target_id>  (908) 
1

>  <reference_id>  (908) 
48

>  <inspiration_ids>  (908) 
[52, 48]

>  <energy_score>  (908) 
310.9755412895908

>  <distance_score>  (908) 
8.49772237769915

>  <path>  (908) 
/opt/xchem-fragalysis-2/maxwin/BulkDock/SCRATCH/511017/C16041-P48/C16041-P48.minimised.mol

>  <scratch_subdir>  (908) 
/opt/xchem-fragalysis-2/maxwin/BulkDock/SCRATCH/511017/C16041-P48

>  <fragmenstein_runtime>  (908) 
6.462301969528198

>  <fragmenstein_outcome>  (908) 
too moved

>  <fragmenstein_mode>  (908) 
expansion

>  <fragmenstein_error>  (908) 


$$$$
C16042-P52
     RDKit          3D

 44 47  0  0  0  0  0  0  0  0999 V2000
   -9.5576  -24.2735   14.3909 C   0  0  0  0  0  0  0  0  0  0  0  0
  -10.1565  -23.5955   13.3954 C   0  0  0  0  0  0  0  0  0  0  0  0
  -10.3128  -22.3051   13.5709 N   0  0  0  0  0  0  0  0  0  0  0  0
   -9.9653  -21.7745   14.8509 C   0  0  0  0  0  0  0  0  0  0  0  0
   -9.4541  -22.2493   16.0697 C   0  0  0  0  0  0  0  0  0  0  0  0
   -8.9445  -21.1444   17.6408 C   0  0  0  0  0  0  0  0  0  0  0  0
   -9.1548  -20.9508   19.5272 N   0  0  0  0  0  0  0  0  0  0  0  0
   -9.9545  -21.5307   20.9932 C   0  0  0  0  0  0  0  0  0  0  0  0
  -11.4490  -21.3299   21.4699 C   0  0  0  0  0  0  0  0  0  0  0  0
  -11.9818  -21.3210   23.1601 C   0  0  0  0  0  0  0  0  0  0  0  0
  -11.6829  -22.4715   24.0428 N   0  0  0  0  0  0  0  0  0  0  0  0
  -12.1080  -22.4956   25.3920 C   0  0  0  0  0  0  0  0  0  0  0  0
  -11.7850  -21.6739   26.3799 N   0  0  0  0  0  0  0  0  0  0  0  0
  -11.7608  -22.3991   27.5498 C   0  0  0  0  0  0  0  0  0  0  0  0
  -11.3929  -22.0199   28.8517 C   0  0  0  0  0  0  0  0  0  0  0  0
  -11.3858  -22.9916   29.8621 C   0  0  0  0  0  0  0  0  0  0  0  0
  -11.7377  -24.3127   29.5786 C   0  0  0  0  0  0  0  0  0  0  0  0
  -12.1440  -24.6992   28.2930 C   0  0  0  0  0  0  0  0  0  0  0  0
  -12.1444  -23.7068   27.3062 C   0  0  0  0  0  0  0  0  0  0  0  0
  -12.4738  -23.7054   25.9666 N   0  0  0  0  0  0  0  0  0  0  0  0
  -10.2442  -22.6168   24.0048 C   0  0  0  0  0  0  0  0  0  0  0  0
   -9.5122  -21.6632   22.7529 C   0  0  0  0  0  0  0  0  0  0  0  0
   -9.1043  -23.5290   15.5498 C   0  0  0  0  0  0  0  0  0  0  0  0
   -9.2884  -25.3157   14.2683 H   0  0  0  0  0  0  0  0  0  0  0  0
  -10.4599  -24.0263   12.4550 H   0  0  0  0  0  0  0  0  0  0  0  0
  -10.2537  -20.7467   14.8388 H   0  0  0  0  0  0  0  0  0  0  0  0
   -9.3679  -20.1818   17.4071 H   0  0  0  0  0  0  0  0  0  0  0  0
   -7.8825  -20.9095   17.5907 H   0  0  0  0  0  0  0  0  0  0  0  0
   -8.7057  -20.0835   19.8169 H   0  0  0  0  0  0  0  0  0  0  0  0
   -9.9682  -22.5087   20.6016 H   0  0  0  0  0  0  0  0  0  0  0  0
  -12.0017  -22.1460   20.9993 H   0  0  0  0  0  0  0  0  0  0  0  0
  -11.6312  -20.3435   21.1188 H   0  0  0  0  0  0  0  0  0  0  0  0
  -11.6157  -20.4051   23.6222 H   0  0  0  0  0  0  0  0  0  0  0  0
  -13.0532  -21.3563   23.1980 H   0  0  0  0  0  0  0  0  0  0  0  0
  -11.0898  -20.9960   29.0489 H   0  0  0  0  0  0  0  0  0  0  0  0
  -11.0872  -22.7124   30.8705 H   0  0  0  0  0  0  0  0  0  0  0  0
  -11.6948  -25.0518   30.3747 H   0  0  0  0  0  0  0  0  0  0  0  0
  -12.4293  -25.7220   28.0753 H   0  0  0  0  0  0  0  0  0  0  0  0
  -12.7591  -24.5124   25.4440 H   0  0  0  0  0  0  0  0  0  0  0  0
   -9.7678  -23.5739   24.0076 H   0  0  0  0  0  0  0  0  0  0  0  0
  -10.0124  -22.7790   25.0536 H   0  0  0  0  0  0  0  0  0  0  0  0
  -10.2398  -22.3467   22.4731 H   0  0  0  0  0  0  0  0  0  0  0  0
   -8.5277  -22.0692   22.8569 H   0  0  0  0  0  0  0  0  0  0  0  0
   -8.3356  -24.0854   16.0311 H   0  0  0  0  0  0  0  0  0  0  0  0
  1  2  2  0
  2  3  1  0
  3  4  2  0
  4  5  1  0
  5  6  1  0
  6  7  1  0
  7  8  1  0
  8  9  1  0
  9 10  1  0
 10 11  1  0
 11 12  1  0
 12 13  2  0
 13 14  1  0
 14 15  2  0
 15 16  1  0
 16 17  2  0
 17 18  1  0
 18 19  2  0
 19 20  1  0
 11 21  1  0
 21 22  1  0
  5 23  2  0
 23  1  1  0
 22  8  1  0
 20 12  1  0
 19 14  1  0
  1 24  1  0
  2 25  1  0
  4 26  1  0
  6 27  1  0
  6 28  1  0
  7 29  1  0
  8 30  1  0
  9 31  1  0
  9 32  1  0
 10 33  1  0
 10 34  1  0
 15 35  1  0
 16 36  1  0
 17 37  1  0
 18 38  1  0
 20 39  1  0
 21 40  1  0
 21 41  1  0
 22 42  1  0
 22 43  1  0
 23 44  1  0
M  END
>  <Energy>  (909) 
501.74433173526472

>  <compound_id>  (909) 
16042

>  <target_id>  (909) 
1

>  <reference_id>  (909) 
52

>  <inspiration_ids>  (909) 
[52, 48]

>  <energy_score>  (909) 
471.17159121703025

>  <distance_score>  (909) 
4.824686820453086

>  <path>  (909) 
/opt/xchem-fragalysis-2/maxwin/BulkDock/SCRATCH/511017/C16042-P52/C16042-P52.minimised.mol

>  <scratch_subdir>  (909) 
/opt/xchem-fragalysis-2/maxwin/BulkDock/SCRATCH/511017/C16042-P52

>  <fragmenstein_runtime>  (909) 
14.093692064285278

>  <fragmenstein_outcome>  (909) 
too moved

>  <fragmenstein_mode>  (909) 
expansion

>  <fragmenstein_error>  (909) 


$$$$
C16042-P48
     RDKit          3D

 44 47  0  0  0  0  0  0  0  0999 V2000
   -9.9161  -23.6515   14.2336 C   0  0  0  0  0  0  0  0  0  0  0  0
  -10.4238  -22.8038   13.3149 C   0  0  0  0  0  0  0  0  0  0  0  0
  -10.4423  -21.5213   13.6112 N   0  0  0  0  0  0  0  0  0  0  0  0
  -10.0346  -21.1424   14.9149 C   0  0  0  0  0  0  0  0  0  0  0  0
   -9.5784  -21.8168   16.0585 C   0  0  0  0  0  0  0  0  0  0  0  0
   -8.9943  -20.9213   17.7088 C   0  0  0  0  0  0  0  0  0  0  0  0
   -9.2644  -20.9266   19.6244 N   0  0  0  0  0  0  0  0  0  0  0  0
  -10.5529  -21.5924   20.7902 C   0  0  0  0  0  0  0  0  0  0  0  0
  -10.3479  -21.2416   22.2248 C   0  0  0  0  0  0  0  0  0  0  0  0
  -10.7528  -21.8566   23.4861 C   0  0  0  0  0  0  0  0  0  0  0  0
  -12.0040  -22.4616   23.7110 N   0  0  0  0  0  0  0  0  0  0  0  0
  -12.5906  -22.8062   24.9525 C   0  0  0  0  0  0  0  0  0  0  0  0
  -13.2778  -23.9131   25.2510 N   0  0  0  0  0  0  0  0  0  0  0  0
  -12.6811  -24.3797   26.4218 C   0  0  0  0  0  0  0  0  0  0  0  0
  -12.6527  -25.6559   27.0187 C   0  0  0  0  0  0  0  0  0  0  0  0
  -12.0287  -25.8129   28.2672 C   0  0  0  0  0  0  0  0  0  0  0  0
  -11.4396  -24.7232   28.9070 C   0  0  0  0  0  0  0  0  0  0  0  0
  -11.4225  -23.4583   28.3066 C   0  0  0  0  0  0  0  0  0  0  0  0
  -12.0292  -23.3472   27.0570 C   0  0  0  0  0  0  0  0  0  0  0  0
  -12.2063  -22.3074   26.1846 N   0  0  0  0  0  0  0  0  0  0  0  0
  -12.7048  -22.2669   22.5104 C   0  0  0  0  0  0  0  0  0  0  0  0
  -11.9349  -22.3946   21.0715 C   0  0  0  0  0  0  0  0  0  0  0  0
   -9.4252  -23.1033   15.4734 C   0  0  0  0  0  0  0  0  0  0  0  0
   -9.7822  -24.7032   14.0088 H   0  0  0  0  0  0  0  0  0  0  0  0
  -10.7776  -23.1000   12.3390 H   0  0  0  0  0  0  0  0  0  0  0  0
  -10.1848  -20.0749   14.9933 H   0  0  0  0  0  0  0  0  0  0  0  0
   -9.2862  -19.8983   17.5459 H   0  0  0  0  0  0  0  0  0  0  0  0
   -7.9065  -20.8189   17.6948 H   0  0  0  0  0  0  0  0  0  0  0  0
   -8.9241  -21.8393   19.6503 H   0  0  0  0  0  0  0  0  0  0  0  0
  -10.0300  -22.4879   20.7300 H   0  0  0  0  0  0  0  0  0  0  0  0
  -11.0214  -20.3891   22.3004 H   0  0  0  0  0  0  0  0  0  0  0  0
   -9.2787  -21.1097   22.3697 H   0  0  0  0  0  0  0  0  0  0  0  0
   -9.9721  -22.5747   23.6916 H   0  0  0  0  0  0  0  0  0  0  0  0
  -10.8258  -20.9311   24.0642 H   0  0  0  0  0  0  0  0  0  0  0  0
  -13.1335  -26.4934   26.5270 H   0  0  0  0  0  0  0  0  0  0  0  0
  -12.0237  -26.7866   28.7511 H   0  0  0  0  0  0  0  0  0  0  0  0
  -11.0008  -24.8557   29.8929 H   0  0  0  0  0  0  0  0  0  0  0  0
  -11.0059  -22.5894   28.7959 H   0  0  0  0  0  0  0  0  0  0  0  0
  -11.9173  -21.3623   26.3417 H   0  0  0  0  0  0  0  0  0  0  0  0
  -12.9067  -21.2471   22.6434 H   0  0  0  0  0  0  0  0  0  0  0  0
  -13.5912  -22.8545   22.6274 H   0  0  0  0  0  0  0  0  0  0  0  0
  -12.5622  -22.2292   20.2231 H   0  0  0  0  0  0  0  0  0  0  0  0
  -11.7801  -23.4654   20.9976 H   0  0  0  0  0  0  0  0  0  0  0  0
   -8.8114  -23.8308   15.9345 H   0  0  0  0  0  0  0  0  0  0  0  0
  1  2  2  0
  2  3  1  0
  3  4  2  0
  4  5  1  0
  5  6  1  0
  6  7  1  0
  7  8  1  0
  8  9  1  0
  9 10  1  0
 10 11  1  0
 11 12  1  0
 12 13  2  0
 13 14  1  0
 14 15  2  0
 15 16  1  0
 16 17  2  0
 17 18  1  0
 18 19  2  0
 19 20  1  0
 11 21  1  0
 21 22  1  0
  5 23  2  0
 23  1  1  0
 22  8  1  0
 20 12  1  0
 19 14  1  0
  1 24  1  0
  2 25  1  0
  4 26  1  0
  6 27  1  0
  6 28  1  0
  7 29  1  0
  8 30  1  0
  9 31  1  0
  9 32  1  0
 10 33  1  0
 10 34  1  0
 15 35  1  0
 16 36  1  0
 17 37  1  0
 18 38  1  0
 20 39  1  0
 21 40  1  0
 21 41  1  0
 22 42  1  0
 22 43  1  0
 23 44  1  0
M  END
>  <Energy>  (910) 
389.77230304213623

>  <compound_id>  (910) 
16042

>  <target_id>  (910) 
1

>  <reference_id>  (910) 
48

>  <inspiration_ids>  (910) 
[52, 48]

>  <energy_score>  (910) 
359.19956252389903

>  <distance_score>  (910) 
5.33470817491516

>  <path>  (910) 
/opt/xchem-fragalysis-2/maxwin/BulkDock/SCRATCH/511017/C16042-P48/C16042-P48.minimised.mol

>  <scratch_subdir>  (910) 
/opt/xchem-fragalysis-2/maxwin/BulkDock/SCRATCH/511017/C16042-P48

>  <fragmenstein_runtime>  (910) 
9.015455722808838

>  <fragmenstein_outcome>  (910) 
too moved

>  <fragmenstein_mode>  (910) 
expansion

>  <fragmenstein_error>  (910) 


$$$$
C16043-P52
     RDKit          3D

 39 42  0  0  0  0  0  0  0  0999 V2000
   -9.1982  -20.2757   20.6761 F   0  0  0  0  0  0  0  0  0  0  0  0
   -9.9613  -20.8565   21.6138 C   0  0  0  0  0  0  0  0  0  0  0  0
   -9.6262  -20.6658   22.9739 C   0  0  0  0  0  0  0  0  0  0  0  0
  -10.4430  -21.1550   23.9964 C   0  0  0  0  0  0  0  0  0  0  0  0
  -11.6245  -21.8213   23.6802 C   0  0  0  0  0  0  0  0  0  0  0  0
  -11.8403  -22.0764   22.3112 C   0  0  0  0  0  0  0  0  0  0  0  0
  -12.7980  -22.7969   21.6152 N   0  0  0  0  0  0  0  0  0  0  0  0
  -12.4870  -23.2083   20.0911 C   0  0  0  0  0  0  0  0  0  0  0  0
  -13.3490  -24.3355   18.9902 N   0  0  0  0  0  0  0  0  0  0  0  0
  -13.3547  -25.8380   19.2185 C   0  0  0  0  0  0  0  0  0  0  0  0
  -14.4337  -26.8473   18.5428 C   0  0  0  0  0  0  0  0  0  0  0  0
  -15.5539  -26.4092   17.6127 C   0  0  0  0  0  0  0  0  0  0  0  0
  -15.4489  -24.9345   17.3455 C   0  0  0  0  0  0  0  0  0  0  0  0
  -13.9499  -24.5061   17.3628 C   0  0  0  0  0  0  0  0  0  0  0  0
  -13.4526  -25.5777   16.1471 C   0  0  0  0  0  0  0  0  0  0  0  0
  -12.4147  -26.5225   16.1731 C   0  0  0  0  0  0  0  0  0  0  0  0
  -12.0391  -27.1961   15.0010 C   0  0  0  0  0  0  0  0  0  0  0  0
  -12.6838  -26.9054   13.8102 C   0  0  0  0  0  0  0  0  0  0  0  0
  -13.6625  -25.9919   13.7057 N   0  0  0  0  0  0  0  0  0  0  0  0
  -14.0044  -25.3511   14.8509 C   0  0  0  0  0  0  0  0  0  0  0  0
  -11.6972  -22.0896   20.0460 N   0  0  0  0  0  0  0  0  0  0  0  0
  -11.0772  -21.6442   21.2723 C   0  0  0  0  0  0  0  0  0  0  0  0
   -8.7282  -20.1025   23.2072 H   0  0  0  0  0  0  0  0  0  0  0  0
  -10.1692  -20.9954   25.0338 H   0  0  0  0  0  0  0  0  0  0  0  0
  -12.2998  -22.1757   24.4501 H   0  0  0  0  0  0  0  0  0  0  0  0
  -13.5480  -23.2598   22.1060 H   0  0  0  0  0  0  0  0  0  0  0  0
  -12.4588  -26.2478   18.7887 H   0  0  0  0  0  0  0  0  0  0  0  0
  -13.5178  -25.9119   20.2778 H   0  0  0  0  0  0  0  0  0  0  0  0
  -15.0245  -27.2731   19.3366 H   0  0  0  0  0  0  0  0  0  0  0  0
  -13.9034  -27.7168   18.1330 H   0  0  0  0  0  0  0  0  0  0  0  0
  -15.5168  -26.9968   16.6869 H   0  0  0  0  0  0  0  0  0  0  0  0
  -16.5409  -26.6471   18.0296 H   0  0  0  0  0  0  0  0  0  0  0  0
  -16.0628  -24.3703   18.0308 H   0  0  0  0  0  0  0  0  0  0  0  0
  -15.9423  -24.7326   16.3880 H   0  0  0  0  0  0  0  0  0  0  0  0
  -13.9058  -23.5494   16.9090 H   0  0  0  0  0  0  0  0  0  0  0  0
  -11.8181  -26.7179   17.0545 H   0  0  0  0  0  0  0  0  0  0  0  0
  -11.2292  -27.9187   15.0201 H   0  0  0  0  0  0  0  0  0  0  0  0
  -12.4089  -27.4058   12.8866 H   0  0  0  0  0  0  0  0  0  0  0  0
  -14.7396  -24.5666   14.6826 H   0  0  0  0  0  0  0  0  0  0  0  0
  1  2  1  0
  2  3  2  0
  3  4  1  0
  4  5  2  0
  5  6  1  0
  6  7  1  0
  7  8  1  0
  8  9  1  0
  9 10  1  0
 10 11  1  0
 11 12  1  0
 12 13  1  0
 13 14  1  0
 14 15  1  0
 15 16  2  0
 16 17  1  0
 17 18  2  0
 18 19  1  0
 19 20  2  0
  8 21  2  0
 21 22  1  0
 22  2  1  0
 22  6  2  0
 14  9  1  0
 20 15  1  0
  3 23  1  0
  4 24  1  0
  5 25  1  0
  7 26  1  0
 10 27  1  0
 10 28  1  0
 11 29  1  0
 11 30  1  0
 12 31  1  0
 12 32  1  0
 13 33  1  0
 13 34  1  0
 14 35  1  0
 16 36  1  0
 17 37  1  0
 18 38  1  0
 20 39  1  0
M  END
>  <Energy>  (911) 
279.56486446814574

>  <compound_id>  (911) 
16043

>  <target_id>  (911) 
1

>  <reference_id>  (911) 
52

>  <inspiration_ids>  (911) 
[52, 48]

>  <energy_score>  (911) 
225.0868896290301

>  <distance_score>  (911) 
9.269710210296259

>  <path>  (911) 
/opt/xchem-fragalysis-2/maxwin/BulkDock/SCRATCH/511017/C16043-P52/C16043-P52.minimised.mol

>  <scratch_subdir>  (911) 
/opt/xchem-fragalysis-2/maxwin/BulkDock/SCRATCH/511017/C16043-P52

>  <fragmenstein_runtime>  (911) 
6.3376946449279785

>  <fragmenstein_outcome>  (911) 
too moved

>  <fragmenstein_mode>  (911) 
expansion

>  <fragmenstein_error>  (911) 


$$$$
C16043-P48
     RDKit          3D

 39 42  0  0  0  0  0  0  0  0999 V2000
  -13.2561  -26.4579   26.3914 F   0  0  0  0  0  0  0  0  0  0  0  0
  -12.8300  -25.1965   26.5604 C   0  0  0  0  0  0  0  0  0  0  0  0
  -12.0694  -24.8866   27.6856 C   0  0  0  0  0  0  0  0  0  0  0  0
  -11.6764  -23.5726   27.8808 C   0  0  0  0  0  0  0  0  0  0  0  0
  -11.9737  -22.5827   26.9274 C   0  0  0  0  0  0  0  0  0  0  0  0
  -12.6007  -22.9444   25.7211 C   0  0  0  0  0  0  0  0  0  0  0  0
  -12.7965  -22.3328   24.4548 N   0  0  0  0  0  0  0  0  0  0  0  0
  -13.3801  -23.2649   23.5896 C   0  0  0  0  0  0  0  0  0  0  0  0
  -13.8718  -23.0793   22.1289 N   0  0  0  0  0  0  0  0  0  0  0  0
  -15.6370  -23.1141   23.2065 C   0  0  0  0  0  0  0  0  0  0  0  0
  -16.5500  -25.0271   23.0454 C   0  0  0  0  0  0  0  0  0  0  0  0
  -16.3944  -26.1081   21.3223 C   0  0  0  0  0  0  0  0  0  0  0  0
  -14.6907  -25.9499   20.0994 C   0  0  0  0  0  0  0  0  0  0  0  0
  -13.4085  -24.2937   20.3129 C   0  0  0  0  0  0  0  0  0  0  0  0
  -13.7657  -24.8037   18.5266 C   0  0  0  0  0  0  0  0  0  0  0  0
  -13.0250  -25.9704   18.0069 C   0  0  0  0  0  0  0  0  0  0  0  0
  -13.1439  -26.4814   16.7034 C   0  0  0  0  0  0  0  0  0  0  0  0
  -14.0677  -25.9039   15.8723 C   0  0  0  0  0  0  0  0  0  0  0  0
  -14.8910  -24.9312   16.2902 N   0  0  0  0  0  0  0  0  0  0  0  0
  -14.7593  -24.4718   17.5833 C   0  0  0  0  0  0  0  0  0  0  0  0
  -13.7917  -24.2932   24.3817 N   0  0  0  0  0  0  0  0  0  0  0  0
  -13.1580  -24.1996   25.6087 C   0  0  0  0  0  0  0  0  0  0  0  0
  -11.8334  -25.6516   28.4167 H   0  0  0  0  0  0  0  0  0  0  0  0
  -11.1545  -23.2908   28.7894 H   0  0  0  0  0  0  0  0  0  0  0  0
  -11.6400  -21.5769   27.1008 H   0  0  0  0  0  0  0  0  0  0  0  0
  -12.5031  -21.4038   24.1971 H   0  0  0  0  0  0  0  0  0  0  0  0
  -16.3608  -22.3106   22.9304 H   0  0  0  0  0  0  0  0  0  0  0  0
  -15.4673  -22.9507   24.2823 H   0  0  0  0  0  0  0  0  0  0  0  0
  -17.6139  -24.9335   23.3109 H   0  0  0  0  0  0  0  0  0  0  0  0
  -16.0416  -25.6500   23.8036 H   0  0  0  0  0  0  0  0  0  0  0  0
  -16.4294  -27.1582   21.6445 H   0  0  0  0  0  0  0  0  0  0  0  0
  -17.2741  -25.9032   20.6957 H   0  0  0  0  0  0  0  0  0  0  0  0
  -15.1800  -26.2395   19.1460 H   0  0  0  0  0  0  0  0  0  0  0  0
  -14.0197  -26.7783   20.2382 H   0  0  0  0  0  0  0  0  0  0  0  0
  -12.3662  -24.5782   20.4635 H   0  0  0  0  0  0  0  0  0  0  0  0
  -12.2735  -26.4527   18.6247 H   0  0  0  0  0  0  0  0  0  0  0  0
  -12.5167  -27.2999   16.3672 H   0  0  0  0  0  0  0  0  0  0  0  0
  -14.2011  -26.2320   14.8470 H   0  0  0  0  0  0  0  0  0  0  0  0
  -15.6478  -23.9092   17.8198 H   0  0  0  0  0  0  0  0  0  0  0  0
  1  2  1  0
  2  3  2  0
  3  4  1  0
  4  5  2  0
  5  6  1  0
  6  7  1  0
  7  8  1  0
  8  9  1  0
  9 10  1  0
 10 11  1  0
 11 12  1  0
 12 13  1  0
 13 14  1  0
 14 15  1  0
 15 16  2  0
 16 17  1  0
 17 18  2  0
 18 19  1  0
 19 20  2  0
  8 21  2  0
 21 22  1  0
 22  2  1  0
 22  6  2  0
 14  9  1  0
 20 15  1  0
  3 23  1  0
  4 24  1  0
  5 25  1  0
  7 26  1  0
 10 27  1  0
 10 28  1  0
 11 29  1  0
 11 30  1  0
 12 31  1  0
 12 32  1  0
 13 33  1  0
 13 34  1  0
 14 35  1  0
 16 36  1  0
 17 37  1  0
 18 38  1  0
 20 39  1  0
M  END
>  <Energy>  (912) 
845.11364767956354

>  <compound_id>  (912) 
16043

>  <target_id>  (912) 
1

>  <reference_id>  (912) 
48

>  <inspiration_ids>  (912) 
[52, 48]

>  <energy_score>  (912) 
790.6356728404508

>  <distance_score>  (912) 
7.828605502646727

>  <path>  (912) 
/opt/xchem-fragalysis-2/maxwin/BulkDock/SCRATCH/511017/C16043-P48/C16043-P48.minimised.mol

>  <scratch_subdir>  (912) 
/opt/xchem-fragalysis-2/maxwin/BulkDock/SCRATCH/511017/C16043-P48

>  <fragmenstein_runtime>  (912) 
4.3331074714660645

>  <fragmenstein_outcome>  (912) 
too moved

>  <fragmenstein_mode>  (912) 
expansion

>  <fragmenstein_error>  (912) 


$$$$
C16044-P52
     RDKit          3D

 44 47  0  0  0  0  0  0  0  0999 V2000
  -12.7267  -26.6557   10.9651 C   0  0  0  0  0  0  0  0  0  0  0  0
  -12.6963  -25.8832    9.8157 C   0  0  0  0  0  0  0  0  0  0  0  0
  -11.6722  -25.0681    9.4945 N   0  0  0  0  0  0  0  0  0  0  0  0
  -10.6243  -25.0487   10.3551 C   0  0  0  0  0  0  0  0  0  0  0  0
  -10.5474  -25.7846   11.5397 C   0  0  0  0  0  0  0  0  0  0  0  0
   -9.2844  -25.7854   12.3648 C   0  0  0  0  0  0  0  0  0  0  0  0
   -9.3746  -25.3971   13.7723 N   0  0  0  0  0  0  0  0  0  0  0  0
   -9.6565  -23.9807   14.1141 C   0  0  0  0  0  0  0  0  0  0  0  0
   -9.2967  -22.9606   13.0954 C   0  0  0  0  0  0  0  0  0  0  0  0
  -10.1755  -21.8338   13.5481 C   0  0  0  0  0  0  0  0  0  0  0  0
   -9.9023  -21.3494   15.1198 C   0  0  0  0  0  0  0  0  0  0  0  0
   -9.3763  -21.9505   16.5409 N   0  0  0  0  0  0  0  0  0  0  0  0
   -9.0167  -21.3712   18.2634 C   0  0  0  0  0  0  0  0  0  0  0  0
   -9.2451  -20.3678   19.1960 N   0  0  0  0  0  0  0  0  0  0  0  0
  -10.0912  -20.8983   20.6283 C   0  0  0  0  0  0  0  0  0  0  0  0
  -11.2590  -20.7475   21.4258 C   0  0  0  0  0  0  0  0  0  0  0  0
  -11.6176  -21.3395   22.6385 C   0  0  0  0  0  0  0  0  0  0  0  0
  -10.6425  -21.9661   23.2646 C   0  0  0  0  0  0  0  0  0  0  0  0
   -9.4251  -21.8656   22.6364 C   0  0  0  0  0  0  0  0  0  0  0  0
   -9.2533  -21.7239   21.1793 C   0  0  0  0  0  0  0  0  0  0  0  0
   -9.7166  -22.0914   19.8103 N   0  0  0  0  0  0  0  0  0  0  0  0
   -9.1381  -23.4828   15.6266 C   0  0  0  0  0  0  0  0  0  0  0  0
  -11.6386  -26.6023   11.8376 C   0  0  0  0  0  0  0  0  0  0  0  0
  -13.5770  -27.2951   11.1757 H   0  0  0  0  0  0  0  0  0  0  0  0
  -13.5200  -25.8984    9.1079 H   0  0  0  0  0  0  0  0  0  0  0  0
   -9.8072  -24.4021   10.0426 H   0  0  0  0  0  0  0  0  0  0  0  0
   -8.4988  -25.2006   11.8717 H   0  0  0  0  0  0  0  0  0  0  0  0
   -8.8976  -26.8130   12.3410 H   0  0  0  0  0  0  0  0  0  0  0  0
   -9.9918  -26.0177   14.2894 H   0  0  0  0  0  0  0  0  0  0  0  0
  -10.7541  -24.0301   14.1385 H   0  0  0  0  0  0  0  0  0  0  0  0
   -8.2279  -22.7443   13.0841 H   0  0  0  0  0  0  0  0  0  0  0  0
   -9.5818  -23.2120   12.0750 H   0  0  0  0  0  0  0  0  0  0  0  0
  -10.1707  -21.0056   12.8282 H   0  0  0  0  0  0  0  0  0  0  0  0
  -11.2018  -22.1511   13.3803 H   0  0  0  0  0  0  0  0  0  0  0  0
  -10.5070  -22.1574   15.1885 H   0  0  0  0  0  0  0  0  0  0  0  0
  -10.2431  -20.3407   15.2472 H   0  0  0  0  0  0  0  0  0  0  0  0
  -11.8368  -20.0744   20.8986 H   0  0  0  0  0  0  0  0  0  0  0  0
  -12.5586  -21.2780   23.1493 H   0  0  0  0  0  0  0  0  0  0  0  0
  -10.7969  -22.4770   24.2028 H   0  0  0  0  0  0  0  0  0  0  0  0
   -8.5633  -22.2441   23.1806 H   0  0  0  0  0  0  0  0  0  0  0  0
  -10.7330  -22.1807   19.7843 H   0  0  0  0  0  0  0  0  0  0  0  0
   -8.1356  -23.7777   15.7390 H   0  0  0  0  0  0  0  0  0  0  0  0
   -9.9744  -24.0473   15.9484 H   0  0  0  0  0  0  0  0  0  0  0  0
  -11.6354  -27.2214   12.7306 H   0  0  0  0  0  0  0  0  0  0  0  0
  1  2  2  0
  2  3  1  0
  3  4  2  0
  4  5  1  0
  5  6  1  0
  6  7  1  0
  7  8  1  0
  8  9  1  0
  9 10  1  0
 10 11  1  0
 11 12  1  0
 12 13  1  0
 13 14  2  0
 14 15  1  0
 15 16  2  0
 16 17  1  0
 17 18  2  0
 18 19  1  0
 19 20  2  0
 20 21  1  0
 12 22  1  0
  5 23  2  0
 23  1  1  0
 22  8  1  0
 21 13  1  0
 20 15  1  0
  1 24  1  0
  2 25  1  0
  4 26  1  0
  6 27  1  0
  6 28  1  0
  7 29  1  0
  8 30  1  0
  9 31  1  0
  9 32  1  0
 10 33  1  0
 10 34  1  0
 11 35  1  0
 11 36  1  0
 16 37  1  0
 17 38  1  0
 18 39  1  0
 19 40  1  0
 21 41  1  0
 22 42  1  0
 22 43  1  0
 23 44  1  0
M  END
>  <Energy>  (913) 
661.20533212361192

>  <compound_id>  (913) 
16044

>  <target_id>  (913) 
1

>  <reference_id>  (913) 
52

>  <inspiration_ids>  (913) 
[52, 48]

>  <energy_score>  (913) 
603.1386755208182

>  <distance_score>  (913) 
7.9350074888855

>  <path>  (913) 
/opt/xchem-fragalysis-2/maxwin/BulkDock/SCRATCH/511017/C16044-P52/C16044-P52.minimised.mol

>  <scratch_subdir>  (913) 
/opt/xchem-fragalysis-2/maxwin/BulkDock/SCRATCH/511017/C16044-P52

>  <fragmenstein_runtime>  (913) 
12.69913125038147

>  <fragmenstein_outcome>  (913) 
too moved

>  <fragmenstein_mode>  (913) 
expansion

>  <fragmenstein_error>  (913) 


$$$$
C16044-P48
     RDKit          3D

 44 47  0  0  0  0  0  0  0  0999 V2000
  -10.4913  -26.0002   11.7783 C   0  0  0  0  0  0  0  0  0  0  0  0
  -11.0262  -25.0208   10.9785 C   0  0  0  0  0  0  0  0  0  0  0  0
  -11.0759  -23.7166   11.3333 N   0  0  0  0  0  0  0  0  0  0  0  0
  -10.6457  -23.3715   12.5813 C   0  0  0  0  0  0  0  0  0  0  0  0
  -10.1344  -24.2813   13.4848 C   0  0  0  0  0  0  0  0  0  0  0  0
   -9.9558  -24.0108   14.9674 C   0  0  0  0  0  0  0  0  0  0  0  0
   -9.2925  -22.7644   15.5237 N   0  0  0  0  0  0  0  0  0  0  0  0
   -9.6248  -22.0335   17.2395 C   0  0  0  0  0  0  0  0  0  0  0  0
   -9.4378  -20.7609   16.7382 C   0  0  0  0  0  0  0  0  0  0  0  0
   -8.8309  -20.0970   17.8956 C   0  0  0  0  0  0  0  0  0  0  0  0
   -9.0327  -20.3586   19.6097 C   0  0  0  0  0  0  0  0  0  0  0  0
   -9.7445  -21.3602   20.4763 N   0  0  0  0  0  0  0  0  0  0  0  0
  -10.7138  -21.4045   21.7320 C   0  0  0  0  0  0  0  0  0  0  0  0
  -10.6817  -20.8847   22.9838 N   0  0  0  0  0  0  0  0  0  0  0  0
  -11.7137  -21.4539   23.7721 C   0  0  0  0  0  0  0  0  0  0  0  0
  -12.1326  -21.5260   25.1290 C   0  0  0  0  0  0  0  0  0  0  0  0
  -12.6749  -22.6827   25.7159 C   0  0  0  0  0  0  0  0  0  0  0  0
  -13.5939  -23.2724   24.9485 C   0  0  0  0  0  0  0  0  0  0  0  0
  -13.5946  -22.8447   23.6400 C   0  0  0  0  0  0  0  0  0  0  0  0
  -12.4974  -22.2227   23.0057 C   0  0  0  0  0  0  0  0  0  0  0  0
  -11.9282  -22.1332   21.7507 N   0  0  0  0  0  0  0  0  0  0  0  0
  -10.0272  -22.2317   19.3914 C   0  0  0  0  0  0  0  0  0  0  0  0
  -10.0466  -25.6210   13.0399 C   0  0  0  0  0  0  0  0  0  0  0  0
  -10.4463  -27.0311   11.4489 H   0  0  0  0  0  0  0  0  0  0  0  0
  -11.4222  -25.2546    9.9939 H   0  0  0  0  0  0  0  0  0  0  0  0
  -10.7733  -22.3248   12.8486 H   0  0  0  0  0  0  0  0  0  0  0  0
   -9.4245  -24.8854   15.3349 H   0  0  0  0  0  0  0  0  0  0  0  0
  -10.9522  -24.1773   15.3421 H   0  0  0  0  0  0  0  0  0  0  0  0
   -8.2957  -22.9535   15.6744 H   0  0  0  0  0  0  0  0  0  0  0  0
  -10.0874  -22.8746   16.7638 H   0  0  0  0  0  0  0  0  0  0  0  0
   -9.6859  -20.9090   15.6515 H   0  0  0  0  0  0  0  0  0  0  0  0
   -9.8633  -19.8727   16.2173 H   0  0  0  0  0  0  0  0  0  0  0  0
   -9.3263  -19.1449   17.6275 H   0  0  0  0  0  0  0  0  0  0  0  0
   -7.7532  -20.0066   17.8656 H   0  0  0  0  0  0  0  0  0  0  0  0
   -8.7079  -21.1204   18.9906 H   0  0  0  0  0  0  0  0  0  0  0  0
   -8.1843  -19.8669   20.1582 H   0  0  0  0  0  0  0  0  0  0  0  0
  -11.7207  -20.9155   25.8838 H   0  0  0  0  0  0  0  0  0  0  0  0
  -12.6330  -22.8249   26.7899 H   0  0  0  0  0  0  0  0  0  0  0  0
  -14.3717  -23.9110   25.3353 H   0  0  0  0  0  0  0  0  0  0  0  0
  -14.4957  -23.0349   23.1642 H   0  0  0  0  0  0  0  0  0  0  0  0
  -12.3127  -22.6081   20.9569 H   0  0  0  0  0  0  0  0  0  0  0  0
  -10.0067  -23.0939   20.0882 H   0  0  0  0  0  0  0  0  0  0  0  0
  -11.2171  -21.9028   19.7198 H   0  0  0  0  0  0  0  0  0  0  0  0
   -9.6740  -26.3938   13.7101 H   0  0  0  0  0  0  0  0  0  0  0  0
  1  2  2  0
  2  3  1  0
  3  4  2  0
  4  5  1  0
  5  6  1  0
  6  7  1  0
  7  8  1  0
  8  9  1  0
  9 10  1  0
 10 11  1  0
 11 12  1  0
 12 13  1  0
 13 14  2  0
 14 15  1  0
 15 16  2  0
 16 17  1  0
 17 18  2  0
 18 19  1  0
 19 20  2  0
 20 21  1  0
 12 22  1  0
  5 23  2  0
 23  1  1  0
 22  8  1  0
 21 13  1  0
 20 15  1  0
  1 24  1  0
  2 25  1  0
  4 26  1  0
  6 27  1  0
  6 28  1  0
  7 29  1  0
  8 30  1  0
  9 31  1  0
  9 32  1  0
 10 33  1  0
 10 34  1  0
 11 35  1  0
 11 36  1  0
 16 37  1  0
 17 38  1  0
 18 39  1  0
 19 40  1  0
 21 41  1  0
 22 42  1  0
 22 43  1  0
 23 44  1  0
M  END
>  <Energy>  (914) 
702.01972549056336

>  <compound_id>  (914) 
16044

>  <target_id>  (914) 
1

>  <reference_id>  (914) 
48

>  <inspiration_ids>  (914) 
[52, 48]

>  <energy_score>  (914) 
643.9530688877564

>  <distance_score>  (914) 
7.1495174140950235

>  <path>  (914) 
/opt/xchem-fragalysis-2/maxwin/BulkDock/SCRATCH/511017/C16044-P48/C16044-P48.minimised.mol

>  <scratch_subdir>  (914) 
/opt/xchem-fragalysis-2/maxwin/BulkDock/SCRATCH/511017/C16044-P48

>  <fragmenstein_runtime>  (914) 
7.270992994308472

>  <fragmenstein_outcome>  (914) 
too moved

>  <fragmenstein_mode>  (914) 
expansion

>  <fragmenstein_error>  (914) 


$$$$
C16045-P52
     RDKit          3D

 42 45  0  0  0  0  0  0  0  0999 V2000
  -12.6237  -27.4029   28.3474 C   0  0  0  0  0  0  0  0  0  0  0  0
  -12.7437  -26.1341   27.5492 C   0  0  0  0  0  0  0  0  0  0  0  0
  -12.2786  -24.9249   28.0860 C   0  0  0  0  0  0  0  0  0  0  0  0
  -12.4258  -23.7305   27.3717 C   0  0  0  0  0  0  0  0  0  0  0  0
  -13.0591  -23.7628   26.1124 C   0  0  0  0  0  0  0  0  0  0  0  0
  -13.3949  -22.7548   25.2365 N   0  0  0  0  0  0  0  0  0  0  0  0
  -13.5294  -23.2594   24.0062 C   0  0  0  0  0  0  0  0  0  0  0  0
  -12.8139  -22.6646   22.7953 N   0  0  0  0  0  0  0  0  0  0  0  0
  -11.9448  -21.7008   23.5349 C   0  0  0  0  0  0  0  0  0  0  0  0
  -10.6000  -21.4795   23.0627 C   0  0  0  0  0  0  0  0  0  0  0  0
  -10.6317  -21.0980   21.7007 C   0  0  0  0  0  0  0  0  0  0  0  0
  -11.3168  -21.7935   20.6503 C   0  0  0  0  0  0  0  0  0  0  0  0
  -12.3919  -22.8570   20.9648 C   0  0  0  0  0  0  0  0  0  0  0  0
  -12.8814  -24.3347   19.7948 C   0  0  0  0  0  0  0  0  0  0  0  0
  -13.3989  -25.5462   20.1515 C   0  0  0  0  0  0  0  0  0  0  0  0
  -13.7038  -26.7425   19.2370 C   0  0  0  0  0  0  0  0  0  0  0  0
  -13.5718  -26.6288   17.8908 C   0  0  0  0  0  0  0  0  0  0  0  0
  -13.4684  -25.4017   17.4387 N   0  0  0  0  0  0  0  0  0  0  0  0
  -13.4137  -24.3775   18.4274 C   0  0  0  0  0  0  0  0  0  0  0  0
  -13.9234  -24.5902   24.3222 N   0  0  0  0  0  0  0  0  0  0  0  0
  -13.4868  -24.9559   25.5874 C   0  0  0  0  0  0  0  0  0  0  0  0
  -13.3706  -26.1670   26.2808 C   0  0  0  0  0  0  0  0  0  0  0  0
  -11.8033  -27.3383   29.0695 H   0  0  0  0  0  0  0  0  0  0  0  0
  -12.4135  -28.2539   27.6912 H   0  0  0  0  0  0  0  0  0  0  0  0
  -13.5551  -27.5909   28.8903 H   0  0  0  0  0  0  0  0  0  0  0  0
  -11.8035  -24.8964   29.0646 H   0  0  0  0  0  0  0  0  0  0  0  0
  -12.0760  -22.7857   27.7757 H   0  0  0  0  0  0  0  0  0  0  0  0
  -12.4552  -20.7732   23.7446 H   0  0  0  0  0  0  0  0  0  0  0  0
  -11.6702  -22.0732   24.5238 H   0  0  0  0  0  0  0  0  0  0  0  0
  -10.2629  -20.5512   23.5069 H   0  0  0  0  0  0  0  0  0  0  0  0
   -9.8898  -22.2557   23.3223 H   0  0  0  0  0  0  0  0  0  0  0  0
  -11.1444  -20.1628   21.7168 H   0  0  0  0  0  0  0  0  0  0  0  0
   -9.5830  -21.0898   21.4289 H   0  0  0  0  0  0  0  0  0  0  0  0
  -10.3848  -22.1491   20.2155 H   0  0  0  0  0  0  0  0  0  0  0  0
  -11.6153  -21.0343   19.9785 H   0  0  0  0  0  0  0  0  0  0  0  0
  -11.4283  -23.3301   21.0393 H   0  0  0  0  0  0  0  0  0  0  0  0
  -13.7739  -25.6510   21.1654 H   0  0  0  0  0  0  0  0  0  0  0  0
  -14.0631  -27.6689   19.6738 H   0  0  0  0  0  0  0  0  0  0  0  0
  -13.6834  -27.4368   17.1842 H   0  0  0  0  0  0  0  0  0  0  0  0
  -14.4528  -24.0987   18.2841 H   0  0  0  0  0  0  0  0  0  0  0  0
  -14.1723  -25.2303   23.5841 H   0  0  0  0  0  0  0  0  0  0  0  0
  -13.7401  -27.0973   25.8619 H   0  0  0  0  0  0  0  0  0  0  0  0
  1  2  1  0
  2  3  2  0
  3  4  1  0
  4  5  2  0
  5  6  1  0
  6  7  2  0
  7  8  1  0
  8  9  1  0
  9 10  1  0
 10 11  1  0
 11 12  1  0
 12 13  1  0
 13 14  1  0
 14 15  2  0
 15 16  1  0
 16 17  2  0
 17 18  1  0
 18 19  2  0
  7 20  1  0
 20 21  1  0
 21 22  2  0
 22  2  1  0
 21  5  1  0
 13  8  1  0
 19 14  1  0
  1 23  1  0
  1 24  1  0
  1 25  1  0
  3 26  1  0
  4 27  1  0
  9 28  1  0
  9 29  1  0
 10 30  1  0
 10 31  1  0
 11 32  1  0
 11 33  1  0
 12 34  1  0
 12 35  1  0
 13 36  1  0
 15 37  1  0
 16 38  1  0
 17 39  1  0
 19 40  1  0
 20 41  1  0
 22 42  1  0
M  END
>  <Energy>  (915) 
359.16243074730721

>  <compound_id>  (915) 
16045

>  <target_id>  (915) 
1

>  <reference_id>  (915) 
52

>  <inspiration_ids>  (915) 
[52, 48]

>  <energy_score>  (915) 
321.8285991964285

>  <distance_score>  (915) 
8.604019171320159

>  <path>  (915) 
/opt/xchem-fragalysis-2/maxwin/BulkDock/SCRATCH/511017/C16045-P52/C16045-P52.minimised.mol

>  <scratch_subdir>  (915) 
/opt/xchem-fragalysis-2/maxwin/BulkDock/SCRATCH/511017/C16045-P52

>  <fragmenstein_runtime>  (915) 
13.965314626693726

>  <fragmenstein_outcome>  (915) 
too moved

>  <fragmenstein_mode>  (915) 
expansion

>  <fragmenstein_error>  (915) 


$$$$
C16045-P48
     RDKit          3D

 42 45  0  0  0  0  0  0  0  0999 V2000
  -11.4193  -28.2738   29.5379 C   0  0  0  0  0  0  0  0  0  0  0  0
  -12.1175  -27.6857   28.3433 C   0  0  0  0  0  0  0  0  0  0  0  0
  -12.0167  -26.3151   28.0752 C   0  0  0  0  0  0  0  0  0  0  0  0
  -12.6448  -25.7597   26.9520 C   0  0  0  0  0  0  0  0  0  0  0  0
  -13.4036  -26.5920   26.1045 C   0  0  0  0  0  0  0  0  0  0  0  0
  -14.1444  -26.2953   24.9788 N   0  0  0  0  0  0  0  0  0  0  0  0
  -14.5802  -27.4377   24.4652 C   0  0  0  0  0  0  0  0  0  0  0  0
  -15.3298  -27.6016   23.3082 N   0  0  0  0  0  0  0  0  0  0  0  0
  -16.6676  -26.9802   23.3975 C   0  0  0  0  0  0  0  0  0  0  0  0
  -17.7267  -28.0316   23.7136 C   0  0  0  0  0  0  0  0  0  0  0  0
  -17.7107  -29.1571   22.6849 C   0  0  0  0  0  0  0  0  0  0  0  0
  -16.3208  -29.7802   22.5805 C   0  0  0  0  0  0  0  0  0  0  0  0
  -15.2020  -28.7493   22.3347 C   0  0  0  0  0  0  0  0  0  0  0  0
  -15.0496  -28.4222   20.8022 C   0  0  0  0  0  0  0  0  0  0  0  0
  -14.0485  -29.0558   20.0302 C   0  0  0  0  0  0  0  0  0  0  0  0
  -13.8663  -28.7713   18.6662 C   0  0  0  0  0  0  0  0  0  0  0  0
  -14.7235  -27.8765   18.0617 C   0  0  0  0  0  0  0  0  0  0  0  0
  -15.7406  -27.2952   18.7222 N   0  0  0  0  0  0  0  0  0  0  0  0
  -15.8830  -27.5926   20.0512 C   0  0  0  0  0  0  0  0  0  0  0  0
  -14.1959  -28.4670   25.3032 N   0  0  0  0  0  0  0  0  0  0  0  0
  -13.4524  -27.9525   26.3530 C   0  0  0  0  0  0  0  0  0  0  0  0
  -12.8253  -28.5341   27.4645 C   0  0  0  0  0  0  0  0  0  0  0  0
  -12.0168  -29.0800   29.9763 H   0  0  0  0  0  0  0  0  0  0  0  0
  -11.2686  -27.5194   30.3172 H   0  0  0  0  0  0  0  0  0  0  0  0
  -10.4443  -28.6728   29.2414 H   0  0  0  0  0  0  0  0  0  0  0  0
  -11.4523  -25.6601   28.7376 H   0  0  0  0  0  0  0  0  0  0  0  0
  -12.5673  -24.6942   26.7474 H   0  0  0  0  0  0  0  0  0  0  0  0
  -16.6977  -26.1969   24.1665 H   0  0  0  0  0  0  0  0  0  0  0  0
  -16.9196  -26.4753   22.4638 H   0  0  0  0  0  0  0  0  0  0  0  0
  -17.5492  -28.4487   24.7127 H   0  0  0  0  0  0  0  0  0  0  0  0
  -18.7174  -27.5637   23.7326 H   0  0  0  0  0  0  0  0  0  0  0  0
  -18.0298  -28.7757   21.7090 H   0  0  0  0  0  0  0  0  0  0  0  0
  -18.4358  -29.9268   22.9732 H   0  0  0  0  0  0  0  0  0  0  0  0
  -16.1149  -30.2962   23.5280 H   0  0  0  0  0  0  0  0  0  0  0  0
  -16.3193  -30.5525   21.8020 H   0  0  0  0  0  0  0  0  0  0  0  0
  -14.2647  -29.2605   22.5934 H   0  0  0  0  0  0  0  0  0  0  0  0
  -13.3778  -29.7782   20.4907 H   0  0  0  0  0  0  0  0  0  0  0  0
  -13.0710  -29.2419   18.0987 H   0  0  0  0  0  0  0  0  0  0  0  0
  -14.6274  -27.6122   17.0136 H   0  0  0  0  0  0  0  0  0  0  0  0
  -16.7401  -27.0965   20.4933 H   0  0  0  0  0  0  0  0  0  0  0  0
  -14.4558  -29.4331   25.1852 H   0  0  0  0  0  0  0  0  0  0  0  0
  -12.8853  -29.6035   27.6480 H   0  0  0  0  0  0  0  0  0  0  0  0
  1  2  1  0
  2  3  2  0
  3  4  1  0
  4  5  2  0
  5  6  1  0
  6  7  2  0
  7  8  1  0
  8  9  1  0
  9 10  1  0
 10 11  1  0
 11 12  1  0
 12 13  1  0
 13 14  1  0
 14 15  2  0
 15 16  1  0
 16 17  2  0
 17 18  1  0
 18 19  2  0
  7 20  1  0
 20 21  1  0
 21 22  2  0
 22  2  1  0
 21  5  1  0
 13  8  1  0
 19 14  1  0
  1 23  1  0
  1 24  1  0
  1 25  1  0
  3 26  1  0
  4 27  1  0
  9 28  1  0
  9 29  1  0
 10 30  1  0
 10 31  1  0
 11 32  1  0
 11 33  1  0
 12 34  1  0
 12 35  1  0
 13 36  1  0
 15 37  1  0
 16 38  1  0
 17 39  1  0
 19 40  1  0
 20 41  1  0
 22 42  1  0
M  END
>  <Energy>  (916) 
29.158242402022172

>  <compound_id>  (916) 
16045

>  <target_id>  (916) 
1

>  <reference_id>  (916) 
48

>  <inspiration_ids>  (916) 
[52, 48]

>  <energy_score>  (916) 
-8.17558914886149

>  <distance_score>  (916) 
9.46695105867628

>  <path>  (916) 
/opt/xchem-fragalysis-2/maxwin/BulkDock/SCRATCH/511017/C16045-P48/C16045-P48.minimised.mol

>  <scratch_subdir>  (916) 
/opt/xchem-fragalysis-2/maxwin/BulkDock/SCRATCH/511017/C16045-P48

>  <fragmenstein_runtime>  (916) 
9.77970552444458

>  <fragmenstein_outcome>  (916) 
too moved

>  <fragmenstein_mode>  (916) 
expansion

>  <fragmenstein_error>  (916) 


$$$$
C16046-P52
     RDKit          3D

 39 42  0  0  0  0  0  0  0  0999 V2000
  -11.9949  -24.7243   27.2611 Br  0  0  0  0  0  0  0  0  0  0  0  0
  -11.8539  -23.5651   25.7866 C   0  0  0  0  0  0  0  0  0  0  0  0
  -12.9614  -22.9643   25.2363 C   0  0  0  0  0  0  0  0  0  0  0  0
  -12.8438  -22.0618   24.1557 C   0  0  0  0  0  0  0  0  0  0  0  0
  -11.5985  -21.8146   23.5738 C   0  0  0  0  0  0  0  0  0  0  0  0
  -11.0653  -20.9807   22.6150 N   0  0  0  0  0  0  0  0  0  0  0  0
   -9.6782  -21.1859   22.3935 C   0  0  0  0  0  0  0  0  0  0  0  0
   -9.0805  -20.9791   21.0522 N   0  0  0  0  0  0  0  0  0  0  0  0
   -9.9071  -21.5642   20.2043 C   0  0  0  0  0  0  0  0  0  0  0  0
   -9.0473  -21.2268   18.9310 C   0  0  0  0  0  0  0  0  0  0  0  0
   -8.9263  -21.0938   17.3914 C   0  0  0  0  0  0  0  0  0  0  0  0
   -9.3355  -22.2229   15.8022 C   0  0  0  0  0  0  0  0  0  0  0  0
   -9.0510  -23.5499   15.4758 C   0  0  0  0  0  0  0  0  0  0  0  0
   -9.5349  -24.4130   14.4018 C   0  0  0  0  0  0  0  0  0  0  0  0
  -10.1453  -23.8829   13.3134 C   0  0  0  0  0  0  0  0  0  0  0  0
  -10.3333  -22.5859   13.2780 N   0  0  0  0  0  0  0  0  0  0  0  0
   -9.9980  -21.8908   14.4499 C   0  0  0  0  0  0  0  0  0  0  0  0
   -7.5636  -19.9469   18.2102 C   0  0  0  0  0  0  0  0  0  0  0  0
   -7.8331  -19.7104   20.1821 C   0  0  0  0  0  0  0  0  0  0  0  0
   -9.3476  -22.1054   23.2813 N   0  0  0  0  0  0  0  0  0  0  0  0
  -10.5088  -22.5262   23.9905 C   0  0  0  0  0  0  0  0  0  0  0  0
  -10.6463  -23.3752   25.1404 C   0  0  0  0  0  0  0  0  0  0  0  0
  -13.9546  -23.1837   25.6047 H   0  0  0  0  0  0  0  0  0  0  0  0
  -13.7326  -21.5448   23.8541 H   0  0  0  0  0  0  0  0  0  0  0  0
  -11.5962  -20.4060   21.9948 H   0  0  0  0  0  0  0  0  0  0  0  0
  -10.9316  -21.1686   20.3081 H   0  0  0  0  0  0  0  0  0  0  0  0
   -9.9906  -22.5673   20.5103 H   0  0  0  0  0  0  0  0  0  0  0  0
   -9.5006  -22.1228   18.6835 H   0  0  0  0  0  0  0  0  0  0  0  0
   -9.4311  -20.2325   18.9903 H   0  0  0  0  0  0  0  0  0  0  0  0
   -9.5107  -20.2151   17.0746 H   0  0  0  0  0  0  0  0  0  0  0  0
   -8.3208  -24.0722   16.0385 H   0  0  0  0  0  0  0  0  0  0  0  0
   -9.2837  -25.4692   14.4166 H   0  0  0  0  0  0  0  0  0  0  0  0
  -10.4465  -24.4630   12.4537 H   0  0  0  0  0  0  0  0  0  0  0  0
  -10.3422  -20.8653   14.2276 H   0  0  0  0  0  0  0  0  0  0  0  0
   -7.4054  -18.9476   17.7501 H   0  0  0  0  0  0  0  0  0  0  0  0
   -6.5941  -20.3880   17.9546 H   0  0  0  0  0  0  0  0  0  0  0  0
   -7.7538  -18.6787   20.5673 H   0  0  0  0  0  0  0  0  0  0  0  0
   -6.7880  -19.8012   20.5710 H   0  0  0  0  0  0  0  0  0  0  0  0
   -9.7538  -23.8243   25.4951 H   0  0  0  0  0  0  0  0  0  0  0  0
  1  2  1  0
  2  3  2  0
  3  4  1  0
  4  5  2  0
  5  6  1  0
  6  7  1  0
  7  8  1  0
  8  9  1  0
  9 10  1  0
 10 11  1  0
 11 12  1  0
 12 13  2  0
 13 14  1  0
 14 15  2  0
 15 16  1  0
 16 17  2  0
 11 18  1  0
 18 19  1  0
  7 20  2  0
 20 21  1  0
 21 22  2  0
 22  2  1  0
 21  5  1  0
 19  8  1  0
 17 12  1  0
  3 23  1  0
  4 24  1  0
  6 25  1  0
  9 26  1  0
  9 27  1  0
 10 28  1  0
 10 29  1  0
 11 30  1  0
 13 31  1  0
 14 32  1  0
 15 33  1  0
 17 34  1  0
 18 35  1  0
 18 36  1  0
 19 37  1  0
 19 38  1  0
 22 39  1  0
M  END
>  <Energy>  (917) 
536.0692100223157

>  <compound_id>  (917) 
16046

>  <target_id>  (917) 
1

>  <reference_id>  (917) 
52

>  <inspiration_ids>  (917) 
[52, 48]

>  <energy_score>  (917) 
508.1860365371392

>  <distance_score>  (917) 
8.123440092732864

>  <path>  (917) 
/opt/xchem-fragalysis-2/maxwin/BulkDock/SCRATCH/511017/C16046-P52/C16046-P52.minimised.mol

>  <scratch_subdir>  (917) 
/opt/xchem-fragalysis-2/maxwin/BulkDock/SCRATCH/511017/C16046-P52

>  <fragmenstein_runtime>  (917) 
8.72416377067566

>  <fragmenstein_outcome>  (917) 
too moved

>  <fragmenstein_mode>  (917) 
expansion

>  <fragmenstein_error>  (917) 


$$$$
C16046-P48
     RDKit          3D

 39 42  0  0  0  0  0  0  0  0999 V2000
  -12.4334  -23.0413   26.2937 Br  0  0  0  0  0  0  0  0  0  0  0  0
  -12.6428  -22.0921   24.6349 C   0  0  0  0  0  0  0  0  0  0  0  0
  -11.7832  -21.1009   24.2116 C   0  0  0  0  0  0  0  0  0  0  0  0
  -11.0481  -21.2729   23.0468 C   0  0  0  0  0  0  0  0  0  0  0  0
  -11.6471  -22.0744   22.1651 C   0  0  0  0  0  0  0  0  0  0  0  0
  -11.3199  -22.7991   21.0335 N   0  0  0  0  0  0  0  0  0  0  0  0
  -12.4223  -23.8515   20.4990 C   0  0  0  0  0  0  0  0  0  0  0  0
  -12.9538  -25.1001   19.4306 N   0  0  0  0  0  0  0  0  0  0  0  0
  -14.2339  -25.1470   18.5775 C   0  0  0  0  0  0  0  0  0  0  0  0
  -14.2591  -25.6058   17.1010 C   0  0  0  0  0  0  0  0  0  0  0  0
  -13.9083  -27.0673   16.8695 C   0  0  0  0  0  0  0  0  0  0  0  0
  -13.4236  -27.2037   15.4175 C   0  0  0  0  0  0  0  0  0  0  0  0
  -14.3671  -27.1983   14.3742 C   0  0  0  0  0  0  0  0  0  0  0  0
  -13.9630  -27.1938   13.0382 C   0  0  0  0  0  0  0  0  0  0  0  0
  -12.6104  -27.1992   12.7664 C   0  0  0  0  0  0  0  0  0  0  0  0
  -11.6675  -27.2198   13.7281 N   0  0  0  0  0  0  0  0  0  0  0  0
  -12.0896  -27.2175   15.0188 C   0  0  0  0  0  0  0  0  0  0  0  0
  -13.0102  -27.4740   18.0408 C   0  0  0  0  0  0  0  0  0  0  0  0
  -12.1656  -26.2667   18.5005 C   0  0  0  0  0  0  0  0  0  0  0  0
  -13.1325  -22.9543   21.1436 N   0  0  0  0  0  0  0  0  0  0  0  0
  -12.8395  -22.5622   22.4244 C   0  0  0  0  0  0  0  0  0  0  0  0
  -13.4359  -22.6304   23.6865 C   0  0  0  0  0  0  0  0  0  0  0  0
  -11.3780  -20.4109   24.9057 H   0  0  0  0  0  0  0  0  0  0  0  0
  -10.0692  -20.9256   22.8529 H   0  0  0  0  0  0  0  0  0  0  0  0
  -10.3467  -22.9244   20.8397 H   0  0  0  0  0  0  0  0  0  0  0  0
  -14.8671  -25.8984   19.0602 H   0  0  0  0  0  0  0  0  0  0  0  0
  -14.6566  -24.1856   18.3711 H   0  0  0  0  0  0  0  0  0  0  0  0
  -13.6132  -24.9678   16.5107 H   0  0  0  0  0  0  0  0  0  0  0  0
  -15.2703  -25.4313   16.7042 H   0  0  0  0  0  0  0  0  0  0  0  0
  -14.8140  -27.6845   16.9516 H   0  0  0  0  0  0  0  0  0  0  0  0
  -15.4318  -27.1709   14.5982 H   0  0  0  0  0  0  0  0  0  0  0  0
  -14.6895  -27.1774   12.2336 H   0  0  0  0  0  0  0  0  0  0  0  0
  -12.2373  -27.1910   11.7468 H   0  0  0  0  0  0  0  0  0  0  0  0
  -11.2735  -27.2072   15.7355 H   0  0  0  0  0  0  0  0  0  0  0  0
  -13.6155  -27.8343   18.8795 H   0  0  0  0  0  0  0  0  0  0  0  0
  -12.3610  -28.3040   17.7420 H   0  0  0  0  0  0  0  0  0  0  0  0
  -11.7717  -25.8754   17.5533 H   0  0  0  0  0  0  0  0  0  0  0  0
  -11.3271  -26.6865   18.9633 H   0  0  0  0  0  0  0  0  0  0  0  0
  -14.2855  -23.2379   23.9413 H   0  0  0  0  0  0  0  0  0  0  0  0
  1  2  1  0
  2  3  2  0
  3  4  1  0
  4  5  2  0
  5  6  1  0
  6  7  1  0
  7  8  1  0
  8  9  1  0
  9 10  1  0
 10 11  1  0
 11 12  1  0
 12 13  2  0
 13 14  1  0
 14 15  2  0
 15 16  1  0
 16 17  2  0
 11 18  1  0
 18 19  1  0
  7 20  2  0
 20 21  1  0
 21 22  2  0
 22  2  1  0
 21  5  1  0
 19  8  1  0
 17 12  1  0
  3 23  1  0
  4 24  1  0
  6 25  1  0
  9 26  1  0
  9 27  1  0
 10 28  1  0
 10 29  1  0
 11 30  1  0
 13 31  1  0
 14 32  1  0
 15 33  1  0
 17 34  1  0
 18 35  1  0
 18 36  1  0
 19 37  1  0
 19 38  1  0
 22 39  1  0
M  END
>  <Energy>  (918) 
280.85333430814836

>  <compound_id>  (918) 
16046

>  <target_id>  (918) 
1

>  <reference_id>  (918) 
48

>  <inspiration_ids>  (918) 
[52, 48]

>  <energy_score>  (918) 
252.97016082297387

>  <distance_score>  (918) 
8.823018545357685

>  <path>  (918) 
/opt/xchem-fragalysis-2/maxwin/BulkDock/SCRATCH/511017/C16046-P48/C16046-P48.minimised.mol

>  <scratch_subdir>  (918) 
/opt/xchem-fragalysis-2/maxwin/BulkDock/SCRATCH/511017/C16046-P48

>  <fragmenstein_runtime>  (918) 
6.526776552200317

>  <fragmenstein_outcome>  (918) 
too moved

>  <fragmenstein_mode>  (918) 
expansion

>  <fragmenstein_error>  (918) 


$$$$
C16051-P52
     RDKit          3D

 41 43  0  0  0  0  0  0  0  0999 V2000
  -10.9645  -22.3072   27.6635 C   0  0  0  0  0  0  0  0  0  0  0  0
  -11.8931  -21.7424   26.5651 C   0  0  0  0  0  0  0  0  0  0  0  0
  -12.3543  -22.4975   25.3456 N   0  0  0  0  0  0  0  0  0  0  0  0
  -11.4677  -22.6557   24.2217 C   0  0  0  0  0  0  0  0  0  0  0  0
  -11.4800  -22.0252   22.5307 C   0  0  0  0  0  0  0  0  0  0  0  0
  -12.3375  -22.6244   21.1014 N   0  0  0  0  0  0  0  0  0  0  0  0
  -12.1663  -23.9104   20.2750 C   0  0  0  0  0  0  0  0  0  0  0  0
  -11.3267  -24.7456   20.4049 O   0  0  0  0  0  0  0  0  0  0  0  0
  -13.3356  -24.4300   19.0413 C   0  0  0  0  0  0  0  0  0  0  0  0
  -13.4521  -25.5234   18.1828 C   0  0  0  0  0  0  0  0  0  0  0  0
  -13.8947  -25.7081   16.7710 C   0  0  0  0  0  0  0  0  0  0  0  0
  -13.0981  -26.4816   15.9035 C   0  0  0  0  0  0  0  0  0  0  0  0
  -13.4177  -26.6006   14.5485 C   0  0  0  0  0  0  0  0  0  0  0  0
  -14.5579  -25.9682   14.0916 C   0  0  0  0  0  0  0  0  0  0  0  0
  -15.3904  -25.2717   14.8944 N   0  0  0  0  0  0  0  0  0  0  0  0
  -15.0472  -25.1808   16.2106 C   0  0  0  0  0  0  0  0  0  0  0  0
  -10.5895  -23.5316   24.8081 N   0  0  0  0  0  0  0  0  0  0  0  0
  -11.3436  -24.3303   25.7180 C   0  0  0  0  0  0  0  0  0  0  0  0
  -11.0856  -25.4533   26.5236 C   0  0  0  0  0  0  0  0  0  0  0  0
  -12.1237  -26.0405   27.2661 C   0  0  0  0  0  0  0  0  0  0  0  0
  -13.4285  -25.5860   27.1340 C   0  0  0  0  0  0  0  0  0  0  0  0
  -13.7192  -24.4789   26.3347 C   0  0  0  0  0  0  0  0  0  0  0  0
  -12.6370  -23.8319   25.7327 C   0  0  0  0  0  0  0  0  0  0  0  0
  -10.0446  -22.7612   27.2963 H   0  0  0  0  0  0  0  0  0  0  0  0
  -11.4846  -23.0560   28.2718 H   0  0  0  0  0  0  0  0  0  0  0  0
  -10.6899  -21.4986   28.3503 H   0  0  0  0  0  0  0  0  0  0  0  0
  -11.5987  -20.7610   26.2236 H   0  0  0  0  0  0  0  0  0  0  0  0
  -12.7789  -21.6502   27.1594 H   0  0  0  0  0  0  0  0  0  0  0  0
  -11.9281  -21.0447   22.6899 H   0  0  0  0  0  0  0  0  0  0  0  0
  -10.4478  -21.8343   22.2292 H   0  0  0  0  0  0  0  0  0  0  0  0
  -13.0540  -22.0993   20.7140 H   0  0  0  0  0  0  0  0  0  0  0  0
  -13.4130  -25.1130   19.9401 H   0  0  0  0  0  0  0  0  0  0  0  0
  -13.0126  -26.4629   18.5363 H   0  0  0  0  0  0  0  0  0  0  0  0
  -12.1840  -26.9480   16.2691 H   0  0  0  0  0  0  0  0  0  0  0  0
  -12.7818  -27.1614   13.8726 H   0  0  0  0  0  0  0  0  0  0  0  0
  -14.8492  -26.0183   13.0468 H   0  0  0  0  0  0  0  0  0  0  0  0
  -15.7674  -24.6513   16.8253 H   0  0  0  0  0  0  0  0  0  0  0  0
  -10.1136  -25.9162   26.5715 H   0  0  0  0  0  0  0  0  0  0  0  0
  -11.9117  -26.9017   27.8940 H   0  0  0  0  0  0  0  0  0  0  0  0
  -14.2343  -26.0901   27.6624 H   0  0  0  0  0  0  0  0  0  0  0  0
  -14.7334  -24.1119   26.2426 H   0  0  0  0  0  0  0  0  0  0  0  0
  1  2  1  0
  2  3  1  0
  3  4  1  0
  4  5  1  0
  5  6  1  0
  6  7  1  0
  7  8  2  0
  7  9  1  0
  9 10  2  3
 10 11  1  0
 11 12  2  0
 12 13  1  0
 13 14  2  0
 14 15  1  0
 15 16  2  0
  4 17  2  0
 17 18  1  0
 18 19  2  0
 19 20  1  0
 20 21  2  0
 21 22  1  0
 22 23  2  0
 23  3  1  0
 16 11  1  0
 23 18  1  0
  1 24  1  0
  1 25  1  0
  1 26  1  0
  2 27  1  0
  2 28  1  0
  5 29  1  0
  5 30  1  0
  6 31  1  0
  9 32  1  0
 10 33  1  0
 12 34  1  0
 13 35  1  0
 14 36  1  0
 16 37  1  0
 19 38  1  0
 20 39  1  0
 21 40  1  0
 22 41  1  0
M  END
>  <Energy>  (919) 
252.22307791169015

>  <compound_id>  (919) 
16051

>  <target_id>  (919) 
1

>  <reference_id>  (919) 
52

>  <inspiration_ids>  (919) 
[52, 48]

>  <energy_score>  (919) 
229.52087369247954

>  <distance_score>  (919) 
6.538850271226549

>  <path>  (919) 
/opt/xchem-fragalysis-2/maxwin/BulkDock/SCRATCH/511017/C16051-P52/C16051-P52.minimised.mol

>  <scratch_subdir>  (919) 
/opt/xchem-fragalysis-2/maxwin/BulkDock/SCRATCH/511017/C16051-P52

>  <fragmenstein_runtime>  (919) 
11.508857250213623

>  <fragmenstein_outcome>  (919) 
too moved

>  <fragmenstein_mode>  (919) 
expansion

>  <fragmenstein_error>  (919) 


$$$$
C16051-P48
     RDKit          3D

 41 43  0  0  0  0  0  0  0  0999 V2000
  -14.9190  -26.4393   25.3352 C   0  0  0  0  0  0  0  0  0  0  0  0
  -14.7003  -25.1668   24.5110 C   0  0  0  0  0  0  0  0  0  0  0  0
  -13.7243  -24.1241   24.7568 N   0  0  0  0  0  0  0  0  0  0  0  0
  -13.2238  -22.9737   23.9009 C   0  0  0  0  0  0  0  0  0  0  0  0
  -12.4885  -22.7219   22.2342 C   0  0  0  0  0  0  0  0  0  0  0  0
  -12.7124  -23.2110   20.5029 N   0  0  0  0  0  0  0  0  0  0  0  0
  -13.3149  -24.7283   19.7755 C   0  0  0  0  0  0  0  0  0  0  0  0
  -13.6160  -25.7770   20.2972 O   0  0  0  0  0  0  0  0  0  0  0  0
  -13.6710  -24.7864   18.1970 C   0  0  0  0  0  0  0  0  0  0  0  0
  -13.5654  -25.9244   17.4690 C   0  0  0  0  0  0  0  0  0  0  0  0
  -13.6357  -25.9519   15.9828 C   0  0  0  0  0  0  0  0  0  0  0  0
  -12.5957  -26.5447   15.2541 C   0  0  0  0  0  0  0  0  0  0  0  0
  -12.5886  -26.4917   13.8574 C   0  0  0  0  0  0  0  0  0  0  0  0
  -13.6333  -25.8486   13.2172 C   0  0  0  0  0  0  0  0  0  0  0  0
  -14.6667  -25.2791   13.8722 N   0  0  0  0  0  0  0  0  0  0  0  0
  -14.6470  -25.3531   15.2303 C   0  0  0  0  0  0  0  0  0  0  0  0
  -12.6267  -22.2089   24.8350 N   0  0  0  0  0  0  0  0  0  0  0  0
  -12.4685  -22.9118   26.0424 C   0  0  0  0  0  0  0  0  0  0  0  0
  -11.8621  -22.5735   27.2660 C   0  0  0  0  0  0  0  0  0  0  0  0
  -11.5617  -23.5428   28.2289 C   0  0  0  0  0  0  0  0  0  0  0  0
  -11.8534  -24.8690   27.9887 C   0  0  0  0  0  0  0  0  0  0  0  0
  -12.5495  -25.2171   26.8310 C   0  0  0  0  0  0  0  0  0  0  0  0
  -12.9290  -24.1963   25.9190 C   0  0  0  0  0  0  0  0  0  0  0  0
  -15.7120  -27.0250   24.8524 H   0  0  0  0  0  0  0  0  0  0  0  0
  -15.2558  -26.2894   26.3533 H   0  0  0  0  0  0  0  0  0  0  0  0
  -14.0379  -27.0838   25.3330 H   0  0  0  0  0  0  0  0  0  0  0  0
  -14.3818  -25.6269   23.5879 H   0  0  0  0  0  0  0  0  0  0  0  0
  -15.6701  -24.6617   24.4569 H   0  0  0  0  0  0  0  0  0  0  0  0
  -11.4147  -22.6377   22.3911 H   0  0  0  0  0  0  0  0  0  0  0  0
  -12.6075  -21.6458   22.1864 H   0  0  0  0  0  0  0  0  0  0  0  0
  -12.6305  -22.4782   19.7921 H   0  0  0  0  0  0  0  0  0  0  0  0
  -13.9739  -23.8881   17.7053 H   0  0  0  0  0  0  0  0  0  0  0  0
  -13.2395  -26.8445   17.9509 H   0  0  0  0  0  0  0  0  0  0  0  0
  -11.7624  -27.0202   15.7680 H   0  0  0  0  0  0  0  0  0  0  0  0
  -11.7766  -26.9314   13.2883 H   0  0  0  0  0  0  0  0  0  0  0  0
  -13.6691  -25.7748   12.1342 H   0  0  0  0  0  0  0  0  0  0  0  0
  -15.4975  -24.8783   15.7137 H   0  0  0  0  0  0  0  0  0  0  0  0
  -11.5902  -21.5545   27.4505 H   0  0  0  0  0  0  0  0  0  0  0  0
  -11.1322  -23.2342   29.1701 H   0  0  0  0  0  0  0  0  0  0  0  0
  -11.5902  -25.6235   28.7244 H   0  0  0  0  0  0  0  0  0  0  0  0
  -12.7851  -26.2601   26.6822 H   0  0  0  0  0  0  0  0  0  0  0  0
  1  2  1  0
  2  3  1  0
  3  4  1  0
  4  5  1  0
  5  6  1  0
  6  7  1  0
  7  8  2  0
  7  9  1  0
  9 10  2  3
 10 11  1  0
 11 12  2  0
 12 13  1  0
 13 14  2  0
 14 15  1  0
 15 16  2  0
  4 17  2  0
 17 18  1  0
 18 19  2  0
 19 20  1  0
 20 21  2  0
 21 22  1  0
 22 23  2  0
 23  3  1  0
 16 11  1  0
 23 18  1  0
  1 24  1  0
  1 25  1  0
  1 26  1  0
  2 27  1  0
  2 28  1  0
  5 29  1  0
  5 30  1  0
  6 31  1  0
  9 32  1  0
 10 33  1  0
 12 34  1  0
 13 35  1  0
 14 36  1  0
 16 37  1  0
 19 38  1  0
 20 39  1  0
 21 40  1  0
 22 41  1  0
M  END
>  <Energy>  (920) 
229.87480257444889

>  <compound_id>  (920) 
16051

>  <target_id>  (920) 
1

>  <reference_id>  (920) 
48

>  <inspiration_ids>  (920) 
[52, 48]

>  <energy_score>  (920) 
207.17259835523427

>  <distance_score>  (920) 
6.375998580474565

>  <path>  (920) 
/opt/xchem-fragalysis-2/maxwin/BulkDock/SCRATCH/511017/C16051-P48/C16051-P48.minimised.mol

>  <scratch_subdir>  (920) 
/opt/xchem-fragalysis-2/maxwin/BulkDock/SCRATCH/511017/C16051-P48

>  <fragmenstein_runtime>  (920) 
6.346661329269409

>  <fragmenstein_outcome>  (920) 
too moved

>  <fragmenstein_mode>  (920) 
expansion

>  <fragmenstein_error>  (920) 


$$$$
C16052-P52
     RDKit          3D

 37 39  0  0  0  0  0  0  0  0999 V2000
  -11.1433  -24.7921   20.4333 O   0  0  0  0  0  0  0  0  0  0  0  0
  -12.0717  -24.0691   20.2503 C   0  0  0  0  0  0  0  0  0  0  0  0
  -13.1993  -24.8461   19.4353 C   0  0  0  0  0  0  0  0  0  0  0  0
  -13.5229  -25.6257   18.3295 C   0  0  0  0  0  0  0  0  0  0  0  0
  -13.1413  -26.0239   16.9446 C   0  0  0  0  0  0  0  0  0  0  0  0
  -11.9536  -26.6862   16.6246 C   0  0  0  0  0  0  0  0  0  0  0  0
  -11.6697  -27.0087   15.2920 C   0  0  0  0  0  0  0  0  0  0  0  0
  -12.6013  -26.6937   14.3137 C   0  0  0  0  0  0  0  0  0  0  0  0
  -13.7888  -26.1101   14.5788 N   0  0  0  0  0  0  0  0  0  0  0  0
  -14.0336  -25.8063   15.8802 C   0  0  0  0  0  0  0  0  0  0  0  0
  -12.2421  -22.6350   20.8150 N   0  0  0  0  0  0  0  0  0  0  0  0
  -11.3619  -21.7966   21.8211 C   0  0  0  0  0  0  0  0  0  0  0  0
  -11.5331  -22.0750   23.4253 C   0  0  0  0  0  0  0  0  0  0  0  0
  -12.2392  -21.5382   24.4291 N   0  0  0  0  0  0  0  0  0  0  0  0
  -11.8937  -22.2359   25.6470 C   0  0  0  0  0  0  0  0  0  0  0  0
  -11.9619  -22.0227   27.0469 C   0  0  0  0  0  0  0  0  0  0  0  0
  -11.6283  -23.0509   27.9555 C   0  0  0  0  0  0  0  0  0  0  0  0
  -11.7717  -22.8334   29.3981 N   0  0  0  0  0  0  0  0  0  0  0  0
  -11.6563  -23.8245   30.1343 O   0  0  0  0  0  0  0  0  0  0  0  0
  -12.0239  -21.6867   29.7874 O   0  0  0  0  0  0  0  0  0  0  0  0
  -11.1760  -24.2807   27.4955 C   0  0  0  0  0  0  0  0  0  0  0  0
  -10.8958  -24.4250   26.1393 C   0  0  0  0  0  0  0  0  0  0  0  0
  -11.1434  -23.3279   25.3046 C   0  0  0  0  0  0  0  0  0  0  0  0
  -10.6191  -22.8658   24.1078 N   0  0  0  0  0  0  0  0  0  0  0  0
  -13.5921  -25.2966   20.3561 H   0  0  0  0  0  0  0  0  0  0  0  0
  -14.3021  -26.3737   18.5326 H   0  0  0  0  0  0  0  0  0  0  0  0
  -11.2308  -26.9262   17.4013 H   0  0  0  0  0  0  0  0  0  0  0  0
  -10.7320  -27.4868   15.0277 H   0  0  0  0  0  0  0  0  0  0  0  0
  -12.4124  -26.9173   13.2677 H   0  0  0  0  0  0  0  0  0  0  0  0
  -14.9970  -25.3319   16.0509 H   0  0  0  0  0  0  0  0  0  0  0  0
  -13.0573  -22.2420   20.4351 H   0  0  0  0  0  0  0  0  0  0  0  0
  -10.3192  -21.8727   21.5154 H   0  0  0  0  0  0  0  0  0  0  0  0
  -11.5882  -20.7462   21.6853 H   0  0  0  0  0  0  0  0  0  0  0  0
  -12.1816  -21.0446   27.4323 H   0  0  0  0  0  0  0  0  0  0  0  0
  -10.9504  -25.0991   28.1757 H   0  0  0  0  0  0  0  0  0  0  0  0
  -10.4598  -25.3419   25.7659 H   0  0  0  0  0  0  0  0  0  0  0  0
   -9.7130  -23.0993   23.7234 H   0  0  0  0  0  0  0  0  0  0  0  0
  1  2  2  0
  2  3  1  0
  3  4  2  3
  4  5  1  0
  5  6  2  0
  6  7  1  0
  7  8  2  0
  8  9  1  0
  9 10  2  0
  2 11  1  0
 11 12  1  0
 12 13  1  0
 13 14  2  0
 14 15  1  0
 15 16  2  0
 16 17  1  0
 17 18  1  0
 18 19  2  0
 18 20  1  0
 17 21  2  0
 21 22  1  0
 22 23  2  0
 23 24  1  0
 10  5  1  0
 24 13  1  0
 23 15  1  0
  3 25  1  0
  4 26  1  0
  6 27  1  0
  7 28  1  0
  8 29  1  0
 10 30  1  0
 11 31  1  0
 12 32  1  0
 12 33  1  0
 16 34  1  0
 21 35  1  0
 22 36  1  0
 24 37  1  0
M  CHG  2  18   1  20  -1
M  END
>  <Energy>  (921) 
148.8287940185642

>  <compound_id>  (921) 
16052

>  <target_id>  (921) 
1

>  <reference_id>  (921) 
52

>  <inspiration_ids>  (921) 
[52, 48]

>  <energy_score>  (921) 
96.82742922605871

>  <distance_score>  (921) 
7.0311801020246305

>  <path>  (921) 
/opt/xchem-fragalysis-2/maxwin/BulkDock/SCRATCH/511017/C16052-P52/C16052-P52.minimised.mol

>  <scratch_subdir>  (921) 
/opt/xchem-fragalysis-2/maxwin/BulkDock/SCRATCH/511017/C16052-P52

>  <fragmenstein_runtime>  (921) 
13.174850225448608

>  <fragmenstein_outcome>  (921) 
too moved

>  <fragmenstein_mode>  (921) 
expansion

>  <fragmenstein_error>  (921) 


$$$$
C16052-P48
     RDKit          3D

 37 39  0  0  0  0  0  0  0  0999 V2000
  -13.5016  -25.6576   20.2742 O   0  0  0  0  0  0  0  0  0  0  0  0
  -13.2728  -24.6221   19.7114 C   0  0  0  0  0  0  0  0  0  0  0  0
  -13.7674  -24.7172   18.1591 C   0  0  0  0  0  0  0  0  0  0  0  0
  -13.6601  -25.8658   17.4488 C   0  0  0  0  0  0  0  0  0  0  0  0
  -13.7519  -25.9142   15.9630 C   0  0  0  0  0  0  0  0  0  0  0  0
  -12.7396  -26.5519   15.2324 C   0  0  0  0  0  0  0  0  0  0  0  0
  -12.7422  -26.5159   13.8351 C   0  0  0  0  0  0  0  0  0  0  0  0
  -13.7688  -25.8439   13.1955 C   0  0  0  0  0  0  0  0  0  0  0  0
  -14.7759  -25.2309   13.8521 N   0  0  0  0  0  0  0  0  0  0  0  0
  -14.7479  -25.2900   15.2108 C   0  0  0  0  0  0  0  0  0  0  0  0
  -12.6446  -23.1030   20.3366 N   0  0  0  0  0  0  0  0  0  0  0  0
  -12.2874  -22.6138   21.8967 C   0  0  0  0  0  0  0  0  0  0  0  0
  -12.9705  -22.4995   23.3931 C   0  0  0  0  0  0  0  0  0  0  0  0
  -12.3335  -22.0533   24.4849 N   0  0  0  0  0  0  0  0  0  0  0  0
  -12.6346  -22.9518   25.5285 C   0  0  0  0  0  0  0  0  0  0  0  0
  -12.0286  -23.2199   26.7721 C   0  0  0  0  0  0  0  0  0  0  0  0
  -12.1594  -24.5294   27.2703 C   0  0  0  0  0  0  0  0  0  0  0  0
  -11.5314  -24.8944   28.5345 N   0  0  0  0  0  0  0  0  0  0  0  0
  -11.3413  -24.0016   29.3631 O   0  0  0  0  0  0  0  0  0  0  0  0
  -11.2687  -26.0947   28.7063 O   0  0  0  0  0  0  0  0  0  0  0  0
  -12.9263  -25.5064   26.6096 C   0  0  0  0  0  0  0  0  0  0  0  0
  -13.7552  -25.1397   25.5348 C   0  0  0  0  0  0  0  0  0  0  0  0
  -13.6017  -23.8273   25.0623 C   0  0  0  0  0  0  0  0  0  0  0  0
  -14.0934  -23.1284   23.9534 N   0  0  0  0  0  0  0  0  0  0  0  0
  -14.0698  -23.8355   17.6454 H   0  0  0  0  0  0  0  0  0  0  0  0
  -13.2957  -26.7687   17.9361 H   0  0  0  0  0  0  0  0  0  0  0  0
  -11.9189  -27.0503   15.7446 H   0  0  0  0  0  0  0  0  0  0  0  0
  -11.9514  -26.9912   13.2646 H   0  0  0  0  0  0  0  0  0  0  0  0
  -13.8114  -25.7819   12.1120 H   0  0  0  0  0  0  0  0  0  0  0  0
  -15.5780  -24.7804   15.6940 H   0  0  0  0  0  0  0  0  0  0  0  0
  -12.6457  -22.3849   19.6045 H   0  0  0  0  0  0  0  0  0  0  0  0
  -11.2262  -22.6207   22.0179 H   0  0  0  0  0  0  0  0  0  0  0  0
  -12.2208  -21.5393   21.7012 H   0  0  0  0  0  0  0  0  0  0  0  0
  -11.4074  -22.4822   27.2636 H   0  0  0  0  0  0  0  0  0  0  0  0
  -12.9834  -26.5245   26.9948 H   0  0  0  0  0  0  0  0  0  0  0  0
  -14.4372  -25.8378   25.0597 H   0  0  0  0  0  0  0  0  0  0  0  0
  -14.8574  -22.5157   24.1810 H   0  0  0  0  0  0  0  0  0  0  0  0
  1  2  2  0
  2  3  1  0
  3  4  2  3
  4  5  1  0
  5  6  2  0
  6  7  1  0
  7  8  2  0
  8  9  1  0
  9 10  2  0
  2 11  1  0
 11 12  1  0
 12 13  1  0
 13 14  2  0
 14 15  1  0
 15 16  2  0
 16 17  1  0
 17 18  1  0
 18 19  2  0
 18 20  1  0
 17 21  2  0
 21 22  1  0
 22 23  2  0
 23 24  1  0
 10  5  1  0
 24 13  1  0
 23 15  1  0
  3 25  1  0
  4 26  1  0
  6 27  1  0
  7 28  1  0
  8 29  1  0
 10 30  1  0
 11 31  1  0
 12 32  1  0
 12 33  1  0
 16 34  1  0
 21 35  1  0
 22 36  1  0
 24 37  1  0
M  CHG  2  18   1  20  -1
M  END
>  <Energy>  (922) 
196.89256658978678

>  <compound_id>  (922) 
16052

>  <target_id>  (922) 
1

>  <reference_id>  (922) 
48

>  <inspiration_ids>  (922) 
[52, 48]

>  <energy_score>  (922) 
144.89120179728218

>  <distance_score>  (922) 
6.9733143258728765

>  <path>  (922) 
/opt/xchem-fragalysis-2/maxwin/BulkDock/SCRATCH/511017/C16052-P48/C16052-P48.minimised.mol

>  <scratch_subdir>  (922) 
/opt/xchem-fragalysis-2/maxwin/BulkDock/SCRATCH/511017/C16052-P48

>  <fragmenstein_runtime>  (922) 
5.326717138290405

>  <fragmenstein_outcome>  (922) 
too moved

>  <fragmenstein_mode>  (922) 
expansion

>  <fragmenstein_error>  (922) 


$$$$
C16053-P52
     RDKit          3D

 35 37  0  0  0  0  0  0  0  0999 V2000
  -14.0202  -25.7670   21.5290 O   0  0  0  0  0  0  0  0  0  0  0  0
  -13.5582  -24.7384   21.1119 C   0  0  0  0  0  0  0  0  0  0  0  0
  -13.2350  -24.8869   19.3757 C   0  0  0  0  0  0  0  0  0  0  0  0
  -13.8971  -24.8812   18.1520 C   0  0  0  0  0  0  0  0  0  0  0  0
  -13.6880  -25.7310   16.9022 C   0  0  0  0  0  0  0  0  0  0  0  0
  -12.6657  -26.6704   16.7195 C   0  0  0  0  0  0  0  0  0  0  0  0
  -12.4652  -27.2679   15.4672 C   0  0  0  0  0  0  0  0  0  0  0  0
  -13.3088  -26.9348   14.4208 C   0  0  0  0  0  0  0  0  0  0  0  0
  -14.3375  -26.0770   14.5491 N   0  0  0  0  0  0  0  0  0  0  0  0
  -14.5016  -25.5105   15.7741 C   0  0  0  0  0  0  0  0  0  0  0  0
  -13.2744  -23.2440   22.0582 N   0  0  0  0  0  0  0  0  0  0  0  0
  -13.5967  -22.8865   23.6714 C   0  0  0  0  0  0  0  0  0  0  0  0
  -12.9829  -23.3785   25.0004 C   0  0  0  0  0  0  0  0  0  0  0  0
  -12.0888  -22.7383   25.7412 N   0  0  0  0  0  0  0  0  0  0  0  0
  -11.9307  -23.4512   26.9087 C   0  0  0  0  0  0  0  0  0  0  0  0
  -11.1369  -23.1832   28.0366 C   0  0  0  0  0  0  0  0  0  0  0  0
  -11.1527  -24.1006   29.0864 C   0  0  0  0  0  0  0  0  0  0  0  0
  -10.3886  -23.8786   30.1633 F   0  0  0  0  0  0  0  0  0  0  0  0
  -11.9370  -25.2498   29.0396 C   0  0  0  0  0  0  0  0  0  0  0  0
  -12.7576  -25.5161   27.9337 C   0  0  0  0  0  0  0  0  0  0  0  0
  -12.7294  -24.5881   26.8842 C   0  0  0  0  0  0  0  0  0  0  0  0
  -13.4063  -24.5071   25.6818 N   0  0  0  0  0  0  0  0  0  0  0  0
  -12.7036  -25.8023   19.2713 H   0  0  0  0  0  0  0  0  0  0  0  0
  -14.8527  -24.3932   18.0316 H   0  0  0  0  0  0  0  0  0  0  0  0
  -11.9746  -26.9176   17.5209 H   0  0  0  0  0  0  0  0  0  0  0  0
  -11.6503  -27.9681   15.3138 H   0  0  0  0  0  0  0  0  0  0  0  0
  -13.1781  -27.3668   13.4330 H   0  0  0  0  0  0  0  0  0  0  0  0
  -15.3342  -24.8130   15.8115 H   0  0  0  0  0  0  0  0  0  0  0  0
  -12.7952  -22.5535   21.4725 H   0  0  0  0  0  0  0  0  0  0  0  0
  -13.2548  -21.8426   23.6693 H   0  0  0  0  0  0  0  0  0  0  0  0
  -14.6638  -22.8239   23.8704 H   0  0  0  0  0  0  0  0  0  0  0  0
  -10.5228  -22.2924   28.0893 H   0  0  0  0  0  0  0  0  0  0  0  0
  -11.9033  -25.9402   29.8770 H   0  0  0  0  0  0  0  0  0  0  0  0
  -13.3802  -26.4034   27.8960 H   0  0  0  0  0  0  0  0  0  0  0  0
  -14.0972  -25.1625   25.3453 H   0  0  0  0  0  0  0  0  0  0  0  0
  1  2  2  0
  2  3  1  0
  3  4  2  3
  4  5  1  0
  5  6  2  0
  6  7  1  0
  7  8  2  0
  8  9  1  0
  9 10  2  0
  2 11  1  0
 11 12  1  0
 12 13  1  0
 13 14  2  0
 14 15  1  0
 15 16  2  0
 16 17  1  0
 17 18  1  0
 17 19  2  0
 19 20  1  0
 20 21  2  0
 21 22  1  0
 10  5  1  0
 22 13  1  0
 21 15  1  0
  3 23  1  0
  4 24  1  0
  6 25  1  0
  7 26  1  0
  8 27  1  0
 10 28  1  0
 11 29  1  0
 12 30  1  0
 12 31  1  0
 16 32  1  0
 19 33  1  0
 20 34  1  0
 22 35  1  0
M  END
>  <Energy>  (923) 
152.91986495997102

>  <compound_id>  (923) 
16053

>  <target_id>  (923) 
1

>  <reference_id>  (923) 
52

>  <inspiration_ids>  (923) 
[52, 48]

>  <energy_score>  (923) 
95.2811127905527

>  <distance_score>  (923) 
6.454324618424765

>  <path>  (923) 
/opt/xchem-fragalysis-2/maxwin/BulkDock/SCRATCH/511017/C16053-P52/C16053-P52.minimised.mol

>  <scratch_subdir>  (923) 
/opt/xchem-fragalysis-2/maxwin/BulkDock/SCRATCH/511017/C16053-P52

>  <fragmenstein_runtime>  (923) 
7.191869735717773

>  <fragmenstein_outcome>  (923) 
too moved

>  <fragmenstein_mode>  (923) 
expansion

>  <fragmenstein_error>  (923) 


$$$$
C16053-P48
     RDKit          3D

 35 37  0  0  0  0  0  0  0  0999 V2000
  -13.4746  -25.6293   20.2799 O   0  0  0  0  0  0  0  0  0  0  0  0
  -13.2653  -24.6010   19.7025 C   0  0  0  0  0  0  0  0  0  0  0  0
  -13.7799  -24.7198   18.1564 C   0  0  0  0  0  0  0  0  0  0  0  0
  -13.6576  -25.8701   17.4520 C   0  0  0  0  0  0  0  0  0  0  0  0
  -13.7544  -25.9260   15.9665 C   0  0  0  0  0  0  0  0  0  0  0  0
  -12.7453  -26.5693   15.2365 C   0  0  0  0  0  0  0  0  0  0  0  0
  -12.7506  -26.5395   13.8390 C   0  0  0  0  0  0  0  0  0  0  0  0
  -13.7761  -25.8669   13.1986 C   0  0  0  0  0  0  0  0  0  0  0  0
  -14.7799  -25.2477   13.8543 N   0  0  0  0  0  0  0  0  0  0  0  0
  -14.7504  -25.3028   15.2134 C   0  0  0  0  0  0  0  0  0  0  0  0
  -12.6468  -23.0720   20.2964 N   0  0  0  0  0  0  0  0  0  0  0  0
  -12.2806  -22.5693   21.8047 C   0  0  0  0  0  0  0  0  0  0  0  0
  -12.6420  -22.5528   23.3973 C   0  0  0  0  0  0  0  0  0  0  0  0
  -13.4473  -22.2411   24.4212 N   0  0  0  0  0  0  0  0  0  0  0  0
  -12.7209  -22.6074   25.7540 C   0  0  0  0  0  0  0  0  0  0  0  0
  -12.4967  -22.3552   27.1444 C   0  0  0  0  0  0  0  0  0  0  0  0
  -11.7089  -23.1578   28.0100 C   0  0  0  0  0  0  0  0  0  0  0  0
  -11.5824  -22.8117   29.2986 F   0  0  0  0  0  0  0  0  0  0  0  0
  -11.0426  -24.2504   27.5467 C   0  0  0  0  0  0  0  0  0  0  0  0
  -10.9790  -24.3646   26.1778 C   0  0  0  0  0  0  0  0  0  0  0  0
  -11.7626  -23.4417   25.3910 C   0  0  0  0  0  0  0  0  0  0  0  0
  -11.5035  -22.7431   24.1086 N   0  0  0  0  0  0  0  0  0  0  0  0
  -14.0996  -23.8453   17.6399 H   0  0  0  0  0  0  0  0  0  0  0  0
  -13.2741  -26.7632   17.9428 H   0  0  0  0  0  0  0  0  0  0  0  0
  -11.9251  -27.0678   15.7495 H   0  0  0  0  0  0  0  0  0  0  0  0
  -11.9626  -27.0203   13.2694 H   0  0  0  0  0  0  0  0  0  0  0  0
  -13.8209  -25.8098   12.1149 H   0  0  0  0  0  0  0  0  0  0  0  0
  -15.5793  -24.7907   15.6961 H   0  0  0  0  0  0  0  0  0  0  0  0
  -12.6662  -22.3645   19.5556 H   0  0  0  0  0  0  0  0  0  0  0  0
  -11.2081  -22.5667   21.7137 H   0  0  0  0  0  0  0  0  0  0  0  0
  -12.2544  -21.4875   21.6698 H   0  0  0  0  0  0  0  0  0  0  0  0
  -12.8354  -21.4984   27.6878 H   0  0  0  0  0  0  0  0  0  0  0  0
  -10.4355  -24.8467   28.2120 H   0  0  0  0  0  0  0  0  0  0  0  0
  -10.1994  -24.9670   25.7352 H   0  0  0  0  0  0  0  0  0  0  0  0
  -10.6015  -22.7710   23.6470 H   0  0  0  0  0  0  0  0  0  0  0  0
  1  2  2  0
  2  3  1  0
  3  4  2  3
  4  5  1  0
  5  6  2  0
  6  7  1  0
  7  8  2  0
  8  9  1  0
  9 10  2  0
  2 11  1  0
 11 12  1  0
 12 13  1  0
 13 14  2  0
 14 15  1  0
 15 16  2  0
 16 17  1  0
 17 18  1  0
 17 19  2  0
 19 20  1  0
 20 21  2  0
 21 22  1  0
 10  5  1  0
 22 13  1  0
 21 15  1  0
  3 23  1  0
  4 24  1  0
  6 25  1  0
  7 26  1  0
  8 27  1  0
 10 28  1  0
 11 29  1  0
 12 30  1  0
 12 31  1  0
 16 32  1  0
 19 33  1  0
 20 34  1  0
 22 35  1  0
M  END
>  <Energy>  (924) 
217.84589078605299

>  <compound_id>  (924) 
16053

>  <target_id>  (924) 
1

>  <reference_id>  (924) 
48

>  <inspiration_ids>  (924) 
[52, 48]

>  <energy_score>  (924) 
160.20713861663572

>  <distance_score>  (924) 
6.635745398662385

>  <path>  (924) 
/opt/xchem-fragalysis-2/maxwin/BulkDock/SCRATCH/511017/C16053-P48/C16053-P48.minimised.mol

>  <scratch_subdir>  (924) 
/opt/xchem-fragalysis-2/maxwin/BulkDock/SCRATCH/511017/C16053-P48

>  <fragmenstein_runtime>  (924) 
4.08603572845459

>  <fragmenstein_outcome>  (924) 
too moved

>  <fragmenstein_mode>  (924) 
expansion

>  <fragmenstein_error>  (924) 


$$$$
C16021-P52
     RDKit          3D

 35 37  0  0  0  0  0  0  0  0999 V2000
  -13.6667  -23.8031   25.6113 O   0  0  0  0  0  0  0  0  0  0  0  0
  -13.6126  -24.9460   25.9449 C   0  0  0  0  0  0  0  0  0  0  0  0
  -14.1979  -26.1220   25.3560 N   0  0  0  0  0  0  0  0  0  0  0  0
  -15.1187  -26.2734   24.2272 C   0  0  0  0  0  0  0  0  0  0  0  0
  -14.5580  -26.4370   22.6834 C   0  0  0  0  0  0  0  0  0  0  0  0
  -13.9693  -25.8875   20.9737 O   0  0  0  0  0  0  0  0  0  0  0  0
  -14.0749  -26.7102   19.4191 C   0  0  0  0  0  0  0  0  0  0  0  0
  -13.1106  -26.5737   18.4109 C   0  0  0  0  0  0  0  0  0  0  0  0
  -13.3397  -26.9291   17.0625 C   0  0  0  0  0  0  0  0  0  0  0  0
  -14.5700  -27.4159   16.6940 C   0  0  0  0  0  0  0  0  0  0  0  0
  -15.5566  -27.6049   17.5813 N   0  0  0  0  0  0  0  0  0  0  0  0
  -15.3028  -27.2533   18.8823 C   0  0  0  0  0  0  0  0  0  0  0  0
  -12.8789  -25.1791   27.2865 C   0  0  0  0  0  0  0  0  0  0  0  0
  -13.0235  -26.3529   28.0672 C   0  0  0  0  0  0  0  0  0  0  0  0
  -12.4671  -26.4768   29.3498 C   0  0  0  0  0  0  0  0  0  0  0  0
  -12.8235  -28.0529   30.3414 Br  0  0  0  0  0  0  0  0  0  0  0  0
  -11.7360  -25.4547   29.9455 C   0  0  0  0  0  0  0  0  0  0  0  0
  -11.6423  -24.2782   29.2091 C   0  0  0  0  0  0  0  0  0  0  0  0
  -11.1005  -23.0597   29.5438 N   0  0  0  0  0  0  0  0  0  0  0  0
  -11.2693  -22.2236   28.4850 C   0  0  0  0  0  0  0  0  0  0  0  0
  -11.8810  -22.8293   27.4962 N   0  0  0  0  0  0  0  0  0  0  0  0
  -12.1633  -24.1126   27.9186 C   0  0  0  0  0  0  0  0  0  0  0  0
  -14.0135  -26.9116   25.9486 H   0  0  0  0  0  0  0  0  0  0  0  0
  -15.6597  -27.2018   24.4536 H   0  0  0  0  0  0  0  0  0  0  0  0
  -15.8771  -25.4981   24.3588 H   0  0  0  0  0  0  0  0  0  0  0  0
  -15.6147  -26.4839   22.4137 H   0  0  0  0  0  0  0  0  0  0  0  0
  -13.9813  -25.5935   23.0178 H   0  0  0  0  0  0  0  0  0  0  0  0
  -12.0941  -26.3166   18.5801 H   0  0  0  0  0  0  0  0  0  0  0  0
  -12.5448  -26.8301   16.3296 H   0  0  0  0  0  0  0  0  0  0  0  0
  -14.7911  -27.6945   15.6689 H   0  0  0  0  0  0  0  0  0  0  0  0
  -16.1755  -27.4528   19.4990 H   0  0  0  0  0  0  0  0  0  0  0  0
  -13.6281  -27.1849   27.7252 H   0  0  0  0  0  0  0  0  0  0  0  0
  -11.3138  -25.5378   30.9412 H   0  0  0  0  0  0  0  0  0  0  0  0
  -10.6700  -22.8186   30.4259 H   0  0  0  0  0  0  0  0  0  0  0  0
  -10.9273  -21.1957   28.4873 H   0  0  0  0  0  0  0  0  0  0  0  0
  1  2  2  0
  2  3  1  0
  3  4  1  0
  4  5  1  0
  5  6  1  0
  6  7  1  0
  7  8  2  0
  8  9  1  0
  9 10  2  0
 10 11  1  0
 11 12  2  0
  2 13  1  0
 13 14  2  0
 14 15  1  0
 15 16  1  0
 15 17  2  0
 17 18  1  0
 18 19  1  0
 19 20  1  0
 20 21  2  0
 21 22  1  0
 12  7  1  0
 22 13  1  0
 22 18  2  0
  3 23  1  0
  4 24  1  0
  4 25  1  0
  5 26  1  0
  5 27  1  0
  8 28  1  0
  9 29  1  0
 10 30  1  0
 12 31  1  0
 14 32  1  0
 17 33  1  0
 19 34  1  0
 20 35  1  0
M  END
>  <Energy>  (925) 
289.65374963109588

>  <compound_id>  (925) 
16021

>  <target_id>  (925) 
1

>  <reference_id>  (925) 
52

>  <inspiration_ids>  (925) 
[52, 48]

>  <energy_score>  (925) 
208.4128935047297

>  <distance_score>  (925) 
7.263717945160534

>  <path>  (925) 
/opt/xchem-fragalysis-2/maxwin/BulkDock/SCRATCH/511017/C16021-P52/C16021-P52.minimised.mol

>  <scratch_subdir>  (925) 
/opt/xchem-fragalysis-2/maxwin/BulkDock/SCRATCH/511017/C16021-P52

>  <fragmenstein_runtime>  (925) 
11.615683794021606

>  <fragmenstein_outcome>  (925) 
too moved

>  <fragmenstein_mode>  (925) 
expansion

>  <fragmenstein_error>  (925) 


$$$$
C16021-P48
     RDKit          3D

 35 37  0  0  0  0  0  0  0  0999 V2000
  -16.5843  -25.1740   24.1727 O   0  0  0  0  0  0  0  0  0  0  0  0
  -16.6050  -26.3697   24.1093 C   0  0  0  0  0  0  0  0  0  0  0  0
  -17.0362  -27.2568   23.0353 N   0  0  0  0  0  0  0  0  0  0  0  0
  -17.6774  -26.9599   21.7186 C   0  0  0  0  0  0  0  0  0  0  0  0
  -16.8989  -27.3892   20.4242 C   0  0  0  0  0  0  0  0  0  0  0  0
  -17.4633  -26.8679   19.1963 O   0  0  0  0  0  0  0  0  0  0  0  0
  -16.6645  -26.8201   18.0643 C   0  0  0  0  0  0  0  0  0  0  0  0
  -15.4649  -27.5010   17.8607 C   0  0  0  0  0  0  0  0  0  0  0  0
  -14.7517  -27.3326   16.6623 C   0  0  0  0  0  0  0  0  0  0  0  0
  -15.2643  -26.4914   15.6875 C   0  0  0  0  0  0  0  0  0  0  0  0
  -16.4252  -25.8247   15.8318 N   0  0  0  0  0  0  0  0  0  0  0  0
  -17.0917  -26.0083   17.0083 C   0  0  0  0  0  0  0  0  0  0  0  0
  -16.1303  -27.0386   25.3848 C   0  0  0  0  0  0  0  0  0  0  0  0
  -17.0796  -27.6828   26.1970 C   0  0  0  0  0  0  0  0  0  0  0  0
  -16.7563  -28.1280   27.4872 C   0  0  0  0  0  0  0  0  0  0  0  0
  -18.0973  -28.9763   28.5229 Br  0  0  0  0  0  0  0  0  0  0  0  0
  -15.4875  -27.9587   28.0436 C   0  0  0  0  0  0  0  0  0  0  0  0
  -14.5489  -27.3185   27.2394 C   0  0  0  0  0  0  0  0  0  0  0  0
  -13.2538  -26.9401   27.5129 N   0  0  0  0  0  0  0  0  0  0  0  0
  -12.7914  -26.2571   26.4303 C   0  0  0  0  0  0  0  0  0  0  0  0
  -13.6798  -26.2359   25.4588 N   0  0  0  0  0  0  0  0  0  0  0  0
  -14.8237  -26.8507   25.9410 C   0  0  0  0  0  0  0  0  0  0  0  0
  -16.9925  -28.2143   23.3592 H   0  0  0  0  0  0  0  0  0  0  0  0
  -18.6487  -27.4666   21.7263 H   0  0  0  0  0  0  0  0  0  0  0  0
  -17.8908  -25.8902   21.6876 H   0  0  0  0  0  0  0  0  0  0  0  0
  -16.8715  -28.4831   20.3660 H   0  0  0  0  0  0  0  0  0  0  0  0
  -15.8865  -27.0168   20.4918 H   0  0  0  0  0  0  0  0  0  0  0  0
  -15.0612  -28.1702   18.6118 H   0  0  0  0  0  0  0  0  0  0  0  0
  -13.8138  -27.8525   16.4978 H   0  0  0  0  0  0  0  0  0  0  0  0
  -14.7459  -26.3325   14.7468 H   0  0  0  0  0  0  0  0  0  0  0  0
  -18.0189  -25.4457   17.0943 H   0  0  0  0  0  0  0  0  0  0  0  0
  -18.1020  -27.7832   25.8342 H   0  0  0  0  0  0  0  0  0  0  0  0
  -15.2560  -28.2893   29.0515 H   0  0  0  0  0  0  0  0  0  0  0  0
  -12.7591  -27.0820   28.3852 H   0  0  0  0  0  0  0  0  0  0  0  0
  -11.8076  -25.8030   26.4081 H   0  0  0  0  0  0  0  0  0  0  0  0
  1  2  2  0
  2  3  1  0
  3  4  1  0
  4  5  1  0
  5  6  1  0
  6  7  1  0
  7  8  2  0
  8  9  1  0
  9 10  2  0
 10 11  1  0
 11 12  2  0
  2 13  1  0
 13 14  2  0
 14 15  1  0
 15 16  1  0
 15 17  2  0
 17 18  1  0
 18 19  1  0
 19 20  1  0
 20 21  2  0
 21 22  1  0
 12  7  1  0
 22 13  1  0
 22 18  2  0
  3 23  1  0
  4 24  1  0
  4 25  1  0
  5 26  1  0
  5 27  1  0
  8 28  1  0
  9 29  1  0
 10 30  1  0
 12 31  1  0
 14 32  1  0
 17 33  1  0
 19 34  1  0
 20 35  1  0
M  END
>  <Energy>  (926) 
73.192196990431711

>  <compound_id>  (926) 
16021

>  <target_id>  (926) 
1

>  <reference_id>  (926) 
48

>  <inspiration_ids>  (926) 
[52, 48]

>  <energy_score>  (926) 
-8.048659135937328

>  <distance_score>  (926) 
8.812457950722088

>  <path>  (926) 
/opt/xchem-fragalysis-2/maxwin/BulkDock/SCRATCH/511017/C16021-P48/C16021-P48.minimised.mol

>  <scratch_subdir>  (926) 
/opt/xchem-fragalysis-2/maxwin/BulkDock/SCRATCH/511017/C16021-P48

>  <fragmenstein_runtime>  (926) 
5.887937068939209

>  <fragmenstein_outcome>  (926) 
too moved

>  <fragmenstein_mode>  (926) 
expansion

>  <fragmenstein_error>  (926) 


$$$$
C36266-P63
     RDKit          3D

 42 44  0  0  0  0  0  0  0  0999 V2000
   -6.0511   -7.9095   18.6837 C   0  0  0  0  0  0  0  0  0  0  0  0
   -4.6562   -8.1782   18.0779 C   0  0  0  0  0  0  0  0  0  0  0  0
   -4.7751   -9.0613   16.8216 C   0  0  0  0  0  0  0  0  0  0  0  0
   -4.1360   -6.7951   17.5959 C   0  0  0  0  0  0  0  0  0  0  0  0
   -3.7487   -8.7960   19.0704 N   0  0  0  0  0  0  0  0  0  0  0  0
   -2.4860   -8.3215   19.3881 C   0  0  0  0  0  0  0  0  0  0  0  0
   -2.0350   -9.1108   20.4138 C   0  0  0  0  0  0  0  0  0  0  0  0
   -2.9540  -10.0861   20.7080 N   0  0  0  0  0  0  0  0  0  0  0  0
   -3.9779   -9.9068   19.8918 C   0  0  0  0  0  0  0  0  0  0  0  0
   -5.2464  -11.1434   19.6275 S   0  0  0  0  0  0  0  0  0  0  0  0
   -6.4780  -11.1379   20.9726 C   0  0  0  0  0  0  0  0  0  0  0  0
   -6.8473  -12.5068   21.7221 C   0  0  0  0  0  0  0  0  0  0  0  0
   -7.0312  -12.3963   22.9081 O   0  0  0  0  0  0  0  0  0  0  0  0
   -6.8356  -13.7003   20.8638 N   0  0  0  0  0  0  0  0  0  0  0  0
   -6.9413  -15.0699   21.1836 C   0  0  0  0  0  0  0  0  0  0  0  0
   -7.1235  -16.0367   20.0892 C   0  0  0  0  0  0  0  0  0  0  0  0
   -6.8144  -17.3395   20.2586 C   0  0  0  0  0  0  0  0  0  0  0  0
   -6.2727  -17.7558   21.4667 N   0  0  0  0  0  0  0  0  0  0  0  0
   -5.6927  -18.9537   21.8018 C   0  0  0  0  0  0  0  0  0  0  0  0
   -5.0592  -18.7157   22.9975 C   0  0  0  0  0  0  0  0  0  0  0  0
   -5.3489  -17.4556   23.4637 N   0  0  0  0  0  0  0  0  0  0  0  0
   -6.1238  -16.9032   22.5502 C   0  0  0  0  0  0  0  0  0  0  0  0
   -6.6212  -15.5565   22.4169 C   0  0  0  0  0  0  0  0  0  0  0  0
   -6.6159   -8.8249   18.8704 H   0  0  0  0  0  0  0  0  0  0  0  0
   -5.9713   -7.3665   19.6327 H   0  0  0  0  0  0  0  0  0  0  0  0
   -6.6670   -7.3064   18.0059 H   0  0  0  0  0  0  0  0  0  0  0  0
   -5.2383  -10.0292   17.0255 H   0  0  0  0  0  0  0  0  0  0  0  0
   -5.3876   -8.5734   16.0542 H   0  0  0  0  0  0  0  0  0  0  0  0
   -3.7895   -9.2548   16.3851 H   0  0  0  0  0  0  0  0  0  0  0  0
   -4.8406   -6.3278   16.8972 H   0  0  0  0  0  0  0  0  0  0  0  0
   -3.1801   -6.8828   17.0664 H   0  0  0  0  0  0  0  0  0  0  0  0
   -4.0011   -6.1022   18.4348 H   0  0  0  0  0  0  0  0  0  0  0  0
   -2.0155   -7.4841   18.8959 H   0  0  0  0  0  0  0  0  0  0  0  0
   -1.0885   -9.0493   20.9371 H   0  0  0  0  0  0  0  0  0  0  0  0
   -6.1561  -10.4180   21.7329 H   0  0  0  0  0  0  0  0  0  0  0  0
   -7.4192  -10.7630   20.5556 H   0  0  0  0  0  0  0  0  0  0  0  0
   -6.7308  -13.4116   19.8953 H   0  0  0  0  0  0  0  0  0  0  0  0
   -7.5174  -15.6810   19.1429 H   0  0  0  0  0  0  0  0  0  0  0  0
   -6.9115  -18.0785   19.4735 H   0  0  0  0  0  0  0  0  0  0  0  0
   -5.6982  -19.8068   21.1402 H   0  0  0  0  0  0  0  0  0  0  0  0
   -4.4145  -19.3835   23.5546 H   0  0  0  0  0  0  0  0  0  0  0  0
   -6.4379  -14.8972   23.2606 H   0  0  0  0  0  0  0  0  0  0  0  0
  1  2  1  0
  2  3  1  0
  2  4  1  0
  2  5  1  0
  5  6  1  0
  6  7  2  0
  7  8  1  0
  8  9  2  0
  9 10  1  0
 10 11  1  0
 11 12  1  0
 12 13  2  0
 12 14  1  0
 14 15  1  0
 15 16  1  0
 16 17  2  0
 17 18  1  0
 18 19  1  0
 19 20  2  0
 20 21  1  0
 21 22  2  0
 22 23  1  0
  9  5  1  0
 23 15  2  0
 22 18  1  0
  1 24  1  0
  1 25  1  0
  1 26  1  0
  3 27  1  0
  3 28  1  0
  3 29  1  0
  4 30  1  0
  4 31  1  0
  4 32  1  0
  6 33  1  0
  7 34  1  0
 11 35  1  0
 11 36  1  0
 14 37  1  0
 16 38  1  0
 17 39  1  0
 19 40  1  0
 20 41  1  0
 23 42  1  0
M  END
>  <Energy>  (927) 
66.958490318332835

>  <compound_id>  (927) 
36266

>  <target_id>  (927) 
1

>  <reference_id>  (927) 
63

>  <inspiration_ids>  (927) 
[63, 45]

>  <energy_score>  (927) 
-22.38356638173434

>  <distance_score>  (927) 
14.36242692342549

>  <path>  (927) 
/opt/xchem-fragalysis-2/maxwin/BulkDock/SCRATCH/511017/C36266-P63/C36266-P63.minimised.mol

>  <scratch_subdir>  (927) 
/opt/xchem-fragalysis-2/maxwin/BulkDock/SCRATCH/511017/C36266-P63

>  <fragmenstein_runtime>  (927) 
37.85926270484924

>  <fragmenstein_outcome>  (927) 
too moved

>  <fragmenstein_mode>  (927) 
expansion

>  <fragmenstein_error>  (927) 


$$$$
C36266-P45
     RDKit          3D

 42 44  0  0  0  0  0  0  0  0999 V2000
    4.3887   -7.1670   17.8249 C   0  0  0  0  0  0  0  0  0  0  0  0
    3.3637   -8.9104   18.0783 C   0  0  0  0  0  0  0  0  0  0  0  0
    4.7793   -9.0975   18.5653 C   0  0  0  0  0  0  0  0  0  0  0  0
    1.9687   -8.5193   18.4359 C   0  0  0  0  0  0  0  0  0  0  0  0
    2.9560  -10.6377   17.6235 N   0  0  0  0  0  0  0  0  0  0  0  0
    3.2857  -10.5735   16.3756 C   0  0  0  0  0  0  0  0  0  0  0  0
    3.6419  -11.6430   15.7230 C   0  0  0  0  0  0  0  0  0  0  0  0
    4.1399  -12.0675   16.9443 N   0  0  0  0  0  0  0  0  0  0  0  0
    3.3892  -12.3750   18.0363 C   0  0  0  0  0  0  0  0  0  0  0  0
    2.3846  -14.5360   18.2664 S   0  0  0  0  0  0  0  0  0  0  0  0
    1.0852  -16.0476   19.7974 C   0  0  0  0  0  0  0  0  0  0  0  0
   -0.1011  -17.4354   20.2023 C   0  0  0  0  0  0  0  0  0  0  0  0
   -0.4313  -17.3517   21.3318 O   0  0  0  0  0  0  0  0  0  0  0  0
   -0.5649  -18.3567   19.1649 N   0  0  0  0  0  0  0  0  0  0  0  0
   -1.5735  -19.3140   19.1830 C   0  0  0  0  0  0  0  0  0  0  0  0
   -1.7744  -20.2752   18.1056 C   0  0  0  0  0  0  0  0  0  0  0  0
   -2.8962  -21.0304   18.0830 C   0  0  0  0  0  0  0  0  0  0  0  0
   -3.8648  -20.8734   19.0762 N   0  0  0  0  0  0  0  0  0  0  0  0
   -5.1056  -21.4525   19.2162 C   0  0  0  0  0  0  0  0  0  0  0  0
   -5.6411  -20.9168   20.3677 C   0  0  0  0  0  0  0  0  0  0  0  0
   -4.7599  -20.0408   20.9508 N   0  0  0  0  0  0  0  0  0  0  0  0
   -3.7036  -20.0207   20.1560 C   0  0  0  0  0  0  0  0  0  0  0  0
   -2.4897  -19.2730   20.1960 C   0  0  0  0  0  0  0  0  0  0  0  0
    4.4356   -6.5434   18.6858 H   0  0  0  0  0  0  0  0  0  0  0  0
    5.4927   -7.2142   17.7464 H   0  0  0  0  0  0  0  0  0  0  0  0
    4.4321   -6.6175   16.8606 H   0  0  0  0  0  0  0  0  0  0  0  0
    5.4664   -9.9924   18.7405 H   0  0  0  0  0  0  0  0  0  0  0  0
    5.2473   -8.2515   19.0509 H   0  0  0  0  0  0  0  0  0  0  0  0
    5.1150   -9.3158   17.6644 H   0  0  0  0  0  0  0  0  0  0  0  0
    1.2522   -8.6080   17.6277 H   0  0  0  0  0  0  0  0  0  0  0  0
    1.9307   -7.5280   18.8126 H   0  0  0  0  0  0  0  0  0  0  0  0
    1.6319   -9.0466   19.2928 H   0  0  0  0  0  0  0  0  0  0  0  0
    3.2721   -9.5747   16.2637 H   0  0  0  0  0  0  0  0  0  0  0  0
    4.0044  -11.7796   14.7110 H   0  0  0  0  0  0  0  0  0  0  0  0
    0.0473  -15.7859   19.9432 H   0  0  0  0  0  0  0  0  0  0  0  0
    1.2104  -16.9135   18.9412 H   0  0  0  0  0  0  0  0  0  0  0  0
   -0.0174  -18.2154   18.3331 H   0  0  0  0  0  0  0  0  0  0  0  0
   -1.0188  -20.3694   17.3339 H   0  0  0  0  0  0  0  0  0  0  0  0
   -3.1050  -21.7488   17.3004 H   0  0  0  0  0  0  0  0  0  0  0  0
   -5.4883  -22.1682   18.5037 H   0  0  0  0  0  0  0  0  0  0  0  0
   -6.6064  -21.1237   20.8121 H   0  0  0  0  0  0  0  0  0  0  0  0
   -2.4099  -18.5773   21.0225 H   0  0  0  0  0  0  0  0  0  0  0  0
  1  2  1  0
  2  3  1  0
  2  4  1  0
  2  5  1  0
  5  6  1  0
  6  7  2  0
  7  8  1  0
  8  9  2  0
  9 10  1  0
 10 11  1  0
 11 12  1  0
 12 13  2  0
 12 14  1  0
 14 15  1  0
 15 16  1  0
 16 17  2  0
 17 18  1  0
 18 19  1  0
 19 20  2  0
 20 21  1  0
 21 22  2  0
 22 23  1  0
  9  5  1  0
 23 15  2  0
 22 18  1  0
  1 24  1  0
  1 25  1  0
  1 26  1  0
  3 27  1  0
  3 28  1  0
  3 29  1  0
  4 30  1  0
  4 31  1  0
  4 32  1  0
  6 33  1  0
  7 34  1  0
 11 35  1  0
 11 36  1  0
 14 37  1  0
 16 38  1  0
 17 39  1  0
 19 40  1  0
 20 41  1  0
 23 42  1  0
M  END
>  <Energy>  (928) 
981.25689935765524

>  <compound_id>  (928) 
36266

>  <target_id>  (928) 
1

>  <reference_id>  (928) 
45

>  <inspiration_ids>  (928) 
[63, 45]

>  <energy_score>  (928) 
891.9148426575805

>  <distance_score>  (928) 
12.281814699308827

>  <path>  (928) 
/opt/xchem-fragalysis-2/maxwin/BulkDock/SCRATCH/511017/C36266-P45/C36266-P45.minimised.mol

>  <scratch_subdir>  (928) 
/opt/xchem-fragalysis-2/maxwin/BulkDock/SCRATCH/511017/C36266-P45

>  <fragmenstein_runtime>  (928) 
44.87746524810791

>  <fragmenstein_outcome>  (928) 
too moved

>  <fragmenstein_mode>  (928) 
expansion

>  <fragmenstein_error>  (928) 


$$$$
C36269-P63
     RDKit          3D

 34 36  0  0  0  0  0  0  0  0999 V2000
   -0.9777  -11.9882   17.9014 O   0  0  0  0  0  0  0  0  0  0  0  0
   -0.5230  -13.0708   17.9320 C   0  0  0  0  0  0  0  0  0  0  0  0
    1.3874  -13.4395   17.9007 N   0  0  0  0  0  0  0  0  0  0  0  0
    3.0282  -12.1210   17.9546 C   0  0  0  0  0  0  0  0  0  0  0  0
    2.8739  -10.0936   17.6583 C   0  0  0  0  0  0  0  0  0  0  0  0
    2.4235   -8.4861   17.9261 N   0  0  0  0  0  0  0  0  0  0  0  0
    3.0473   -7.2273   17.6187 C   0  0  0  0  0  0  0  0  0  0  0  0
    2.1209   -6.2292   17.5292 C   0  0  0  0  0  0  0  0  0  0  0  0
    0.9133   -6.7281   17.7988 N   0  0  0  0  0  0  0  0  0  0  0  0
    1.1031   -8.0046   18.0583 C   0  0  0  0  0  0  0  0  0  0  0  0
   -1.5723  -14.4323   18.1531 N   0  0  0  0  0  0  0  0  0  0  0  0
   -2.9466  -14.5283   18.4115 C   0  0  0  0  0  0  0  0  0  0  0  0
   -3.4664  -15.8436   17.9184 C   0  0  0  0  0  0  0  0  0  0  0  0
   -4.1735  -16.6854   18.6961 C   0  0  0  0  0  0  0  0  0  0  0  0
   -4.5559  -16.2680   19.9586 N   0  0  0  0  0  0  0  0  0  0  0  0
   -5.2491  -16.9454   20.9345 C   0  0  0  0  0  0  0  0  0  0  0  0
   -5.4188  -16.0375   21.9515 C   0  0  0  0  0  0  0  0  0  0  0  0
   -4.8494  -14.8251   21.6259 N   0  0  0  0  0  0  0  0  0  0  0  0
   -4.3020  -14.9824   20.4283 C   0  0  0  0  0  0  0  0  0  0  0  0
   -3.4398  -14.1214   19.6192 C   0  0  0  0  0  0  0  0  0  0  0  0
    1.5447  -14.4370   17.8500 H   0  0  0  0  0  0  0  0  0  0  0  0
    3.8241  -12.6229   18.5421 H   0  0  0  0  0  0  0  0  0  0  0  0
    3.5555  -11.9698   17.0081 H   0  0  0  0  0  0  0  0  0  0  0  0
    3.4095  -10.0265   16.7470 H   0  0  0  0  0  0  0  0  0  0  0  0
    1.8512  -10.0247   17.6536 H   0  0  0  0  0  0  0  0  0  0  0  0
    4.1086   -7.0242   17.6667 H   0  0  0  0  0  0  0  0  0  0  0  0
    2.2836   -5.1758   17.3475 H   0  0  0  0  0  0  0  0  0  0  0  0
    0.2666   -8.6231   18.3158 H   0  0  0  0  0  0  0  0  0  0  0  0
   -1.0562  -15.1852   18.2354 H   0  0  0  0  0  0  0  0  0  0  0  0
   -3.1823  -16.1302   16.9096 H   0  0  0  0  0  0  0  0  0  0  0  0
   -4.4893  -17.6684   18.3734 H   0  0  0  0  0  0  0  0  0  0  0  0
   -5.5532  -17.9742   20.8159 H   0  0  0  0  0  0  0  0  0  0  0  0
   -5.9219  -16.1829   22.8989 H   0  0  0  0  0  0  0  0  0  0  0  0
   -2.9697  -13.2969   20.1409 H   0  0  0  0  0  0  0  0  0  0  0  0
  1  2  2  0
  2  3  1  0
  3  4  1  0
  4  5  1  0
  5  6  1  0
  6  7  1  0
  7  8  2  0
  8  9  1  0
  9 10  2  0
  2 11  1  0
 11 12  1  0
 12 13  1  0
 13 14  2  0
 14 15  1  0
 15 16  1  0
 16 17  2  0
 17 18  1  0
 18 19  2  0
 19 20  1  0
 10  6  1  0
 20 12  2  0
 19 15  1  0
  3 21  1  0
  4 22  1  0
  4 23  1  0
  5 24  1  0
  5 25  1  0
  7 26  1  0
  8 27  1  0
 10 28  1  0
 11 29  1  0
 13 30  1  0
 14 31  1  0
 16 32  1  0
 17 33  1  0
 20 34  1  0
M  END
>  <Energy>  (929) 
445.5027405402351

>  <compound_id>  (929) 
36269

>  <target_id>  (929) 
1

>  <reference_id>  (929) 
63

>  <inspiration_ids>  (929) 
[63, 45]

>  <energy_score>  (929) 
447.098021090211

>  <distance_score>  (929) 
13.80387774965092

>  <path>  (929) 
/opt/xchem-fragalysis-2/maxwin/BulkDock/SCRATCH/511017/C36269-P63/C36269-P63.minimised.mol

>  <scratch_subdir>  (929) 
/opt/xchem-fragalysis-2/maxwin/BulkDock/SCRATCH/511017/C36269-P63

>  <fragmenstein_runtime>  (929) 
24.281049966812134

>  <fragmenstein_outcome>  (929) 
too moved

>  <fragmenstein_mode>  (929) 
expansion

>  <fragmenstein_error>  (929) 


$$$$
C36269-P45
     RDKit          3D

 34 36  0  0  0  0  0  0  0  0999 V2000
    1.4775  -21.3097   14.5756 O   0  0  0  0  0  0  0  0  0  0  0  0
    2.1659  -21.0784   15.5025 C   0  0  0  0  0  0  0  0  0  0  0  0
    3.2872  -20.0689   15.6568 N   0  0  0  0  0  0  0  0  0  0  0  0
    3.7788  -19.0128   14.7257 C   0  0  0  0  0  0  0  0  0  0  0  0
    5.2645  -19.0208   14.2391 C   0  0  0  0  0  0  0  0  0  0  0  0
    5.8832  -17.7012   13.9561 N   0  0  0  0  0  0  0  0  0  0  0  0
    5.7793  -16.9585   12.8032 C   0  0  0  0  0  0  0  0  0  0  0  0
    6.6282  -15.8805   12.9606 C   0  0  0  0  0  0  0  0  0  0  0  0
    7.2246  -15.9187   14.1882 N   0  0  0  0  0  0  0  0  0  0  0  0
    6.8575  -17.0754   14.6982 C   0  0  0  0  0  0  0  0  0  0  0  0
    2.1508  -21.6832   16.9236 N   0  0  0  0  0  0  0  0  0  0  0  0
    1.3052  -22.6374   17.4993 C   0  0  0  0  0  0  0  0  0  0  0  0
    0.0868  -23.0693   16.8005 C   0  0  0  0  0  0  0  0  0  0  0  0
   -0.6814  -24.0604   17.2957 C   0  0  0  0  0  0  0  0  0  0  0  0
   -0.3085  -24.6891   18.4739 N   0  0  0  0  0  0  0  0  0  0  0  0
   -0.8597  -25.7812   19.0986 C   0  0  0  0  0  0  0  0  0  0  0  0
   -0.0507  -26.0266   20.1814 C   0  0  0  0  0  0  0  0  0  0  0  0
    0.9482  -25.0831   20.2709 N   0  0  0  0  0  0  0  0  0  0  0  0
    0.7919  -24.2933   19.2230 C   0  0  0  0  0  0  0  0  0  0  0  0
    1.5772  -23.1995   18.7100 C   0  0  0  0  0  0  0  0  0  0  0  0
    3.6118  -20.0756   16.6066 H   0  0  0  0  0  0  0  0  0  0  0  0
    3.1246  -19.0393   13.8477 H   0  0  0  0  0  0  0  0  0  0  0  0
    3.5883  -18.0736   15.2481 H   0  0  0  0  0  0  0  0  0  0  0  0
    5.9100  -19.5185   14.9699 H   0  0  0  0  0  0  0  0  0  0  0  0
    5.3426  -19.5972   13.3094 H   0  0  0  0  0  0  0  0  0  0  0  0
    5.1395  -17.2557   11.9831 H   0  0  0  0  0  0  0  0  0  0  0  0
    6.8214  -15.0764   12.2607 H   0  0  0  0  0  0  0  0  0  0  0  0
    7.2679  -17.5094   15.5968 H   0  0  0  0  0  0  0  0  0  0  0  0
    2.9285  -21.3225   17.4496 H   0  0  0  0  0  0  0  0  0  0  0  0
   -0.1912  -22.5764   15.8747 H   0  0  0  0  0  0  0  0  0  0  0  0
   -1.5743  -24.4158   16.7975 H   0  0  0  0  0  0  0  0  0  0  0  0
   -1.7366  -26.2831   18.7165 H   0  0  0  0  0  0  0  0  0  0  0  0
   -0.1443  -26.8177   20.9142 H   0  0  0  0  0  0  0  0  0  0  0  0
    2.4475  -22.9100   19.2885 H   0  0  0  0  0  0  0  0  0  0  0  0
  1  2  2  0
  2  3  1  0
  3  4  1  0
  4  5  1  0
  5  6  1  0
  6  7  1  0
  7  8  2  0
  8  9  1  0
  9 10  2  0
  2 11  1  0
 11 12  1  0
 12 13  1  0
 13 14  2  0
 14 15  1  0
 15 16  1  0
 16 17  2  0
 17 18  1  0
 18 19  2  0
 19 20  1  0
 10  6  1  0
 20 12  2  0
 19 15  1  0
  3 21  1  0
  4 22  1  0
  4 23  1  0
  5 24  1  0
  5 25  1  0
  7 26  1  0
  8 27  1  0
 10 28  1  0
 11 29  1  0
 13 30  1  0
 14 31  1  0
 16 32  1  0
 17 33  1  0
 20 34  1  0
M  END
>  <Energy>  (930) 
-14.701952274729594

>  <compound_id>  (930) 
36269

>  <target_id>  (930) 
1

>  <reference_id>  (930) 
45

>  <inspiration_ids>  (930) 
[63, 45]

>  <energy_score>  (930) 
-13.10667172473427

>  <distance_score>  (930) 
14.01544830658241

>  <path>  (930) 
/opt/xchem-fragalysis-2/maxwin/BulkDock/SCRATCH/511017/C36269-P45/C36269-P45.minimised.mol

>  <scratch_subdir>  (930) 
/opt/xchem-fragalysis-2/maxwin/BulkDock/SCRATCH/511017/C36269-P45

>  <fragmenstein_runtime>  (930) 
33.914947748184204

>  <fragmenstein_outcome>  (930) 
too moved

>  <fragmenstein_mode>  (930) 
expansion

>  <fragmenstein_error>  (930) 


$$$$
C36270-P63
     RDKit          3D

 36 39  0  0  0  0  0  0  0  0999 V2000
   -2.7100  -17.4945   24.7834 O   0  0  0  0  0  0  0  0  0  0  0  0
   -2.4735  -18.7183   24.5366 C   0  0  0  0  0  0  0  0  0  0  0  0
   -1.8900  -19.4894   23.0806 N   0  0  0  0  0  0  0  0  0  0  0  0
   -1.5484  -18.7779   21.3946 C   0  0  0  0  0  0  0  0  0  0  0  0
   -0.6259  -19.3591   20.2322 C   0  0  0  0  0  0  0  0  0  0  0  0
   -0.1888  -17.6980   19.7289 C   0  0  0  0  0  0  0  0  0  0  0  0
    0.9748  -16.0546   19.6662 C   0  0  0  0  0  0  0  0  0  0  0  0
    2.1675  -14.9291   20.1183 N   0  0  0  0  0  0  0  0  0  0  0  0
    3.0355  -14.2087   18.5588 C   0  0  0  0  0  0  0  0  0  0  0  0
    2.7340  -15.1295   17.6091 C   0  0  0  0  0  0  0  0  0  0  0  0
    2.1836  -15.2165   18.7403 N   0  0  0  0  0  0  0  0  0  0  0  0
   -0.3362  -17.7623   21.2208 C   0  0  0  0  0  0  0  0  0  0  0  0
   -2.6355  -19.4221   25.6294 C   0  0  0  0  0  0  0  0  0  0  0  0
   -4.4667  -20.0745   25.5245 C   0  0  0  0  0  0  0  0  0  0  0  0
   -5.4575  -19.6899   26.7631 C   0  0  0  0  0  0  0  0  0  0  0  0
   -4.7089  -18.6442   28.1123 N   0  0  0  0  0  0  0  0  0  0  0  0
   -5.2542  -18.4176   30.0892 C   0  0  0  0  0  0  0  0  0  0  0  0
   -4.1622  -19.6441   31.0391 C   0  0  0  0  0  0  0  0  0  0  0  0
   -2.5332  -19.8858   29.7018 N   0  0  0  0  0  0  0  0  0  0  0  0
   -2.7267  -19.1069   27.9522 C   0  0  0  0  0  0  0  0  0  0  0  0
   -1.9437  -19.0341   26.7614 C   0  0  0  0  0  0  0  0  0  0  0  0
   -1.8915  -20.5020   23.2007 H   0  0  0  0  0  0  0  0  0  0  0  0
   -2.5320  -18.4679   21.0140 H   0  0  0  0  0  0  0  0  0  0  0  0
   -1.1956  -19.8921   19.4606 H   0  0  0  0  0  0  0  0  0  0  0  0
    0.2056  -20.0168   20.5280 H   0  0  0  0  0  0  0  0  0  0  0  0
    0.4667  -18.1702   18.9698 H   0  0  0  0  0  0  0  0  0  0  0  0
    3.8405  -13.4878   18.7397 H   0  0  0  0  0  0  0  0  0  0  0  0
    2.7967  -15.6196   16.6729 H   0  0  0  0  0  0  0  0  0  0  0  0
    3.0595  -15.3765   19.4986 H   0  0  0  0  0  0  0  0  0  0  0  0
    0.5308  -18.2966   21.5176 H   0  0  0  0  0  0  0  0  0  0  0  0
   -0.3160  -16.7329   21.5178 H   0  0  0  0  0  0  0  0  0  0  0  0
   -4.6134  -20.5867   24.5887 H   0  0  0  0  0  0  0  0  0  0  0  0
   -6.4731  -19.9110   27.0022 H   0  0  0  0  0  0  0  0  0  0  0  0
   -5.5959  -17.3882   30.2598 H   0  0  0  0  0  0  0  0  0  0  0  0
   -3.8698  -19.4519   32.0870 H   0  0  0  0  0  0  0  0  0  0  0  0
   -1.0164  -18.4785   26.7737 H   0  0  0  0  0  0  0  0  0  0  0  0
  1  2  2  0
  2  3  1  0
  3  4  1  0
  4  5  1  0
  5  6  1  0
  6  7  1  0
  7  8  2  0
  8  9  1  0
  9 10  2  0
 10 11  1  0
  6 12  1  0
  2 13  1  0
 13 14  1  0
 14 15  2  0
 15 16  1  0
 16 17  1  0
 17 18  2  0
 18 19  1  0
 19 20  2  0
 20 21  1  0
 12  4  1  0
 21 13  2  0
 11  7  1  0
 20 16  1  0
  3 22  1  0
  4 23  1  0
  5 24  1  0
  5 25  1  0
  6 26  1  0
  9 27  1  0
 10 28  1  0
 11 29  1  0
 12 30  1  0
 12 31  1  0
 14 32  1  0
 15 33  1  0
 17 34  1  0
 18 35  1  0
 21 36  1  0
M  END
>  <Energy>  (931) 
1603.4651222658904

>  <compound_id>  (931) 
36270

>  <target_id>  (931) 
1

>  <reference_id>  (931) 
63

>  <inspiration_ids>  (931) 
[63, 45]

>  <energy_score>  (931) 
1556.8908178352492

>  <distance_score>  (931) 
12.525381427617617

>  <path>  (931) 
/opt/xchem-fragalysis-2/maxwin/BulkDock/SCRATCH/511017/C36270-P63/C36270-P63.minimised.mol

>  <scratch_subdir>  (931) 
/opt/xchem-fragalysis-2/maxwin/BulkDock/SCRATCH/511017/C36270-P63

>  <fragmenstein_runtime>  (931) 
22.63548445701599

>  <fragmenstein_outcome>  (931) 
too moved

>  <fragmenstein_mode>  (931) 
expansion

>  <fragmenstein_error>  (931) 


$$$$
C36270-P45
     RDKit          3D

 36 39  0  0  0  0  0  0  0  0999 V2000
   -6.5631  -15.0971   20.7210 O   0  0  0  0  0  0  0  0  0  0  0  0
   -5.8050  -15.8067   20.1216 C   0  0  0  0  0  0  0  0  0  0  0  0
   -4.8548  -15.5000   19.0761 N   0  0  0  0  0  0  0  0  0  0  0  0
   -4.5826  -14.2281   18.3408 C   0  0  0  0  0  0  0  0  0  0  0  0
   -3.1507  -13.6282   18.4619 C   0  0  0  0  0  0  0  0  0  0  0  0
   -3.7945  -12.2347   18.1703 C   0  0  0  0  0  0  0  0  0  0  0  0
   -3.0628  -10.9455   18.7738 C   0  0  0  0  0  0  0  0  0  0  0  0
   -2.4411  -10.0318   18.0419 N   0  0  0  0  0  0  0  0  0  0  0  0
   -1.9214   -9.1303   18.9418 C   0  0  0  0  0  0  0  0  0  0  0  0
   -2.2829   -9.4501   20.2232 C   0  0  0  0  0  0  0  0  0  0  0  0
   -3.0229  -10.5909   20.0996 N   0  0  0  0  0  0  0  0  0  0  0  0
   -5.0615  -12.8345   18.8704 C   0  0  0  0  0  0  0  0  0  0  0  0
   -5.8345  -17.3112   20.4974 C   0  0  0  0  0  0  0  0  0  0  0  0
   -4.6380  -18.1531   20.6541 C   0  0  0  0  0  0  0  0  0  0  0  0
   -4.7668  -19.4520   20.9994 C   0  0  0  0  0  0  0  0  0  0  0  0
   -6.0360  -19.9875   21.2133 N   0  0  0  0  0  0  0  0  0  0  0  0
   -6.4359  -21.2748   21.4672 C   0  0  0  0  0  0  0  0  0  0  0  0
   -7.8049  -21.2294   21.5655 C   0  0  0  0  0  0  0  0  0  0  0  0
   -8.2615  -19.9487   21.4005 N   0  0  0  0  0  0  0  0  0  0  0  0
   -7.1922  -19.2208   21.1517 C   0  0  0  0  0  0  0  0  0  0  0  0
   -7.0492  -17.8420   20.7989 C   0  0  0  0  0  0  0  0  0  0  0  0
   -4.3219  -16.3346   18.8587 H   0  0  0  0  0  0  0  0  0  0  0  0
   -4.8731  -14.3803   17.2907 H   0  0  0  0  0  0  0  0  0  0  0  0
   -2.7111  -13.7319   19.4582 H   0  0  0  0  0  0  0  0  0  0  0  0
   -2.4354  -13.9769   17.7133 H   0  0  0  0  0  0  0  0  0  0  0  0
   -3.9768  -12.0729   17.0986 H   0  0  0  0  0  0  0  0  0  0  0  0
   -1.2701   -8.3247   18.6381 H   0  0  0  0  0  0  0  0  0  0  0  0
   -2.0640   -8.9970   21.1778 H   0  0  0  0  0  0  0  0  0  0  0  0
   -3.5069  -11.0720   20.8469 H   0  0  0  0  0  0  0  0  0  0  0  0
   -5.0916  -12.7093   19.9526 H   0  0  0  0  0  0  0  0  0  0  0  0
   -6.0172  -12.4932   18.4610 H   0  0  0  0  0  0  0  0  0  0  0  0
   -3.6581  -17.7108   20.5036 H   0  0  0  0  0  0  0  0  0  0  0  0
   -3.9159  -20.1085   21.1109 H   0  0  0  0  0  0  0  0  0  0  0  0
   -5.7595  -22.1080   21.5262 H   0  0  0  0  0  0  0  0  0  0  0  0
   -8.4867  -22.0499   21.7515 H   0  0  0  0  0  0  0  0  0  0  0  0
   -7.9567  -17.2476   20.7455 H   0  0  0  0  0  0  0  0  0  0  0  0
  1  2  2  0
  2  3  1  0
  3  4  1  0
  4  5  1  0
  5  6  1  0
  6  7  1  0
  7  8  2  0
  8  9  1  0
  9 10  2  0
 10 11  1  0
  6 12  1  0
  2 13  1  0
 13 14  1  0
 14 15  2  0
 15 16  1  0
 16 17  1  0
 17 18  2  0
 18 19  1  0
 19 20  2  0
 20 21  1  0
 12  4  1  0
 21 13  2  0
 11  7  1  0
 20 16  1  0
  3 22  1  0
  4 23  1  0
  5 24  1  0
  5 25  1  0
  6 26  1  0
  9 27  1  0
 10 28  1  0
 11 29  1  0
 12 30  1  0
 12 31  1  0
 14 32  1  0
 15 33  1  0
 17 34  1  0
 18 35  1  0
 21 36  1  0
M  END
>  <Energy>  (932) 
32.736160939683508

>  <compound_id>  (932) 
36270

>  <target_id>  (932) 
1

>  <reference_id>  (932) 
45

>  <inspiration_ids>  (932) 
[63, 45]

>  <energy_score>  (932) 
-13.838143490975995

>  <distance_score>  (932) 
13.59713038795131

>  <path>  (932) 
/opt/xchem-fragalysis-2/maxwin/BulkDock/SCRATCH/511017/C36270-P45/C36270-P45.minimised.mol

>  <scratch_subdir>  (932) 
/opt/xchem-fragalysis-2/maxwin/BulkDock/SCRATCH/511017/C36270-P45

>  <fragmenstein_runtime>  (932) 
35.80644965171814

>  <fragmenstein_outcome>  (932) 
too moved

>  <fragmenstein_mode>  (932) 
expansion

>  <fragmenstein_error>  (932) 


$$$$
C36271-P63
     RDKit          3D

 36 39  0  0  0  0  0  0  0  0999 V2000
   -0.0625  -19.5744   18.0554 O   0  0  0  0  0  0  0  0  0  0  0  0
   -0.2289  -18.7828   18.9437 C   0  0  0  0  0  0  0  0  0  0  0  0
   -1.2863  -18.6845   19.9464 N   0  0  0  0  0  0  0  0  0  0  0  0
   -2.4512  -19.4138   20.1123 C   0  0  0  0  0  0  0  0  0  0  0  0
   -2.9266  -20.2941   19.0419 C   0  0  0  0  0  0  0  0  0  0  0  0
   -4.1686  -20.8124   19.0936 C   0  0  0  0  0  0  0  0  0  0  0  0
   -4.9655  -20.5628   20.2063 N   0  0  0  0  0  0  0  0  0  0  0  0
   -6.2192  -21.0298   20.5022 C   0  0  0  0  0  0  0  0  0  0  0  0
   -6.5214  -20.5018   21.7320 C   0  0  0  0  0  0  0  0  0  0  0  0
   -5.4838  -19.7463   22.2188 N   0  0  0  0  0  0  0  0  0  0  0  0
   -4.5465  -19.8007   21.2901 C   0  0  0  0  0  0  0  0  0  0  0  0
   -3.2396  -19.2221   21.2026 C   0  0  0  0  0  0  0  0  0  0  0  0
    0.7826  -17.6319   18.9559 C   0  0  0  0  0  0  0  0  0  0  0  0
    1.8333  -17.3286   17.8778 C   0  0  0  0  0  0  0  0  0  0  0  0
    2.7232  -15.6982   17.8440 C   0  0  0  0  0  0  0  0  0  0  0  0
    2.9034  -14.6291   18.8102 C   0  0  0  0  0  0  0  0  0  0  0  0
    4.1263  -13.4719   19.1576 C   0  0  0  0  0  0  0  0  0  0  0  0
    4.4507  -12.9672   20.4510 C   0  0  0  0  0  0  0  0  0  0  0  0
    5.7233  -12.5578   20.3887 N   0  0  0  0  0  0  0  0  0  0  0  0
    5.6588  -11.9609   19.2410 C   0  0  0  0  0  0  0  0  0  0  0  0
    4.5239  -12.3824   18.6167 N   0  0  0  0  0  0  0  0  0  0  0  0
    2.1389  -15.0596   20.0005 C   0  0  0  0  0  0  0  0  0  0  0  0
    0.8147  -16.3518   20.0185 C   0  0  0  0  0  0  0  0  0  0  0  0
   -1.0620  -17.9389   20.5926 H   0  0  0  0  0  0  0  0  0  0  0  0
   -2.2824  -20.4968   18.1933 H   0  0  0  0  0  0  0  0  0  0  0  0
   -4.5720  -21.4493   18.3174 H   0  0  0  0  0  0  0  0  0  0  0  0
   -6.7706  -21.6696   19.8294 H   0  0  0  0  0  0  0  0  0  0  0  0
   -7.4394  -20.6300   22.2846 H   0  0  0  0  0  0  0  0  0  0  0  0
   -2.9306  -18.5858   22.0198 H   0  0  0  0  0  0  0  0  0  0  0  0
    1.9076  -17.9690   16.9904 H   0  0  0  0  0  0  0  0  0  0  0  0
    3.1940  -15.5299   16.8973 H   0  0  0  0  0  0  0  0  0  0  0  0
    3.8418  -13.0068   21.3288 H   0  0  0  0  0  0  0  0  0  0  0  0
    6.4007  -12.2932   21.0706 H   0  0  0  0  0  0  0  0  0  0  0  0
    6.2593  -11.1025   18.9968 H   0  0  0  0  0  0  0  0  0  0  0  0
    2.4223  -14.5549   20.8668 H   0  0  0  0  0  0  0  0  0  0  0  0
    0.2116  -16.4741   20.9141 H   0  0  0  0  0  0  0  0  0  0  0  0
  1  2  2  0
  2  3  1  0
  3  4  1  0
  4  5  1  0
  5  6  2  0
  6  7  1  0
  7  8  1  0
  8  9  2  0
  9 10  1  0
 10 11  2  0
 11 12  1  0
  2 13  1  0
 13 14  2  0
 14 15  1  0
 15 16  2  0
 16 17  1  0
 17 18  2  0
 18 19  1  0
 19 20  1  0
 20 21  2  0
 16 22  1  0
 22 23  2  0
 12  4  2  0
 23 13  1  0
 11  7  1  0
 21 17  1  0
  3 24  1  0
  5 25  1  0
  6 26  1  0
  8 27  1  0
  9 28  1  0
 12 29  1  0
 14 30  1  0
 15 31  1  0
 18 32  1  0
 19 33  1  0
 20 34  1  0
 22 35  1  0
 23 36  1  0
M  END
>  <Energy>  (933) 
279.20847688100133

>  <compound_id>  (933) 
36271

>  <target_id>  (933) 
1

>  <reference_id>  (933) 
63

>  <inspiration_ids>  (933) 
[63, 45]

>  <energy_score>  (933) 
193.33124867195193

>  <distance_score>  (933) 
12.3689502788843

>  <path>  (933) 
/opt/xchem-fragalysis-2/maxwin/BulkDock/SCRATCH/511017/C36271-P63/C36271-P63.minimised.mol

>  <scratch_subdir>  (933) 
/opt/xchem-fragalysis-2/maxwin/BulkDock/SCRATCH/511017/C36271-P63

>  <fragmenstein_runtime>  (933) 
39.309070110321045

>  <fragmenstein_outcome>  (933) 
too moved

>  <fragmenstein_mode>  (933) 
expansion

>  <fragmenstein_error>  (933) 


$$$$
C36271-P45
     RDKit          3D

 36 39  0  0  0  0  0  0  0  0999 V2000
   -1.8224  -18.8881   21.0033 O   0  0  0  0  0  0  0  0  0  0  0  0
   -1.6403  -18.2339   22.0199 C   0  0  0  0  0  0  0  0  0  0  0  0
   -2.6903  -18.6402   23.6374 N   0  0  0  0  0  0  0  0  0  0  0  0
   -4.1025  -19.8323   23.9582 C   0  0  0  0  0  0  0  0  0  0  0  0
   -4.4820  -21.1253   24.6359 C   0  0  0  0  0  0  0  0  0  0  0  0
   -5.3249  -22.6205   24.5288 C   0  0  0  0  0  0  0  0  0  0  0  0
   -5.8212  -22.9317   25.8352 N   0  0  0  0  0  0  0  0  0  0  0  0
   -6.4082  -23.8711   26.5919 C   0  0  0  0  0  0  0  0  0  0  0  0
   -6.3449  -23.3147   27.8371 C   0  0  0  0  0  0  0  0  0  0  0  0
   -5.7625  -22.0561   27.8202 N   0  0  0  0  0  0  0  0  0  0  0  0
   -5.2812  -21.7983   26.6082 C   0  0  0  0  0  0  0  0  0  0  0  0
   -4.7444  -20.3224   25.5099 C   0  0  0  0  0  0  0  0  0  0  0  0
   -0.2272  -16.6694   21.6338 C   0  0  0  0  0  0  0  0  0  0  0  0
    0.6515  -16.3716   20.5701 C   0  0  0  0  0  0  0  0  0  0  0  0
    2.1039  -15.1657   20.5071 C   0  0  0  0  0  0  0  0  0  0  0  0
    3.1571  -14.3298   21.6521 C   0  0  0  0  0  0  0  0  0  0  0  0
    4.2215  -13.0529   20.8602 C   0  0  0  0  0  0  0  0  0  0  0  0
    5.5240  -13.3650   20.6240 C   0  0  0  0  0  0  0  0  0  0  0  0
    6.2674  -12.2692   20.5975 N   0  0  0  0  0  0  0  0  0  0  0  0
    5.6160  -11.9192   19.5202 C   0  0  0  0  0  0  0  0  0  0  0  0
    4.4330  -12.6355   19.5199 N   0  0  0  0  0  0  0  0  0  0  0  0
    2.3129  -14.5421   23.1098 C   0  0  0  0  0  0  0  0  0  0  0  0
    0.5752  -15.0580   22.2663 C   0  0  0  0  0  0  0  0  0  0  0  0
   -2.4803  -17.9730   24.3333 H   0  0  0  0  0  0  0  0  0  0  0  0
   -3.3390  -21.0949   24.3313 H   0  0  0  0  0  0  0  0  0  0  0  0
   -5.6158  -23.2447   23.6740 H   0  0  0  0  0  0  0  0  0  0  0  0
   -6.7857  -24.8171   26.2446 H   0  0  0  0  0  0  0  0  0  0  0  0
   -6.7185  -23.7490   28.7481 H   0  0  0  0  0  0  0  0  0  0  0  0
   -5.3183  -19.7403   26.1787 H   0  0  0  0  0  0  0  0  0  0  0  0
    0.5136  -17.0631   19.7648 H   0  0  0  0  0  0  0  0  0  0  0  0
    2.5094  -14.9276   19.4631 H   0  0  0  0  0  0  0  0  0  0  0  0
    5.7472  -14.0427   19.7975 H   0  0  0  0  0  0  0  0  0  0  0  0
    7.2514  -12.3993   20.6396 H   0  0  0  0  0  0  0  0  0  0  0  0
    6.0148  -11.1913   18.8520 H   0  0  0  0  0  0  0  0  0  0  0  0
    2.5602  -13.6597   23.7561 H   0  0  0  0  0  0  0  0  0  0  0  0
   -0.1833  -14.3741   22.7317 H   0  0  0  0  0  0  0  0  0  0  0  0
  1  2  2  0
  2  3  1  0
  3  4  1  0
  4  5  1  0
  5  6  2  0
  6  7  1  0
  7  8  1  0
  8  9  2  0
  9 10  1  0
 10 11  2  0
 11 12  1  0
  2 13  1  0
 13 14  2  0
 14 15  1  0
 15 16  2  0
 16 17  1  0
 17 18  2  0
 18 19  1  0
 19 20  1  0
 20 21  2  0
 16 22  1  0
 22 23  2  0
 12  4  2  0
 23 13  1  0
 11  7  1  0
 21 17  1  0
  3 24  1  0
  5 25  1  0
  6 26  1  0
  8 27  1  0
  9 28  1  0
 12 29  1  0
 14 30  1  0
 15 31  1  0
 18 32  1  0
 19 33  1  0
 20 34  1  0
 22 35  1  0
 23 36  1  0
M  END
>  <Energy>  (934) 
1567.3476366618224

>  <compound_id>  (934) 
36271

>  <target_id>  (934) 
1

>  <reference_id>  (934) 
45

>  <inspiration_ids>  (934) 
[63, 45]

>  <energy_score>  (934) 
1481.470408452784

>  <distance_score>  (934) 
10.854162474564609

>  <path>  (934) 
/opt/xchem-fragalysis-2/maxwin/BulkDock/SCRATCH/511017/C36271-P45/C36271-P45.minimised.mol

>  <scratch_subdir>  (934) 
/opt/xchem-fragalysis-2/maxwin/BulkDock/SCRATCH/511017/C36271-P45

>  <fragmenstein_runtime>  (934) 
27.561758518218994

>  <fragmenstein_outcome>  (934) 
too moved

>  <fragmenstein_mode>  (934) 
expansion

>  <fragmenstein_error>  (934) 


$$$$
C36272-P63
     RDKit          3D

 41 44  0  0  0  0  0  0  0  0999 V2000
   -3.7281  -16.8337   20.7824 O   0  0  0  0  0  0  0  0  0  0  0  0
   -2.8553  -17.5120   20.4130 C   0  0  0  0  0  0  0  0  0  0  0  0
   -2.7916  -18.9318   20.2679 N   0  0  0  0  0  0  0  0  0  0  0  0
   -3.7569  -19.8949   20.4273 C   0  0  0  0  0  0  0  0  0  0  0  0
   -3.9208  -20.8237   19.2918 C   0  0  0  0  0  0  0  0  0  0  0  0
   -4.9942  -21.6410   19.2365 C   0  0  0  0  0  0  0  0  0  0  0  0
   -5.9111  -21.6271   20.2849 N   0  0  0  0  0  0  0  0  0  0  0  0
   -6.9759  -22.4554   20.5299 C   0  0  0  0  0  0  0  0  0  0  0  0
   -7.5188  -22.0145   21.7115 C   0  0  0  0  0  0  0  0  0  0  0  0
   -6.8271  -20.9317   22.1913 N   0  0  0  0  0  0  0  0  0  0  0  0
   -5.8393  -20.7324   21.3450 C   0  0  0  0  0  0  0  0  0  0  0  0
   -4.7454  -19.8081   21.3530 C   0  0  0  0  0  0  0  0  0  0  0  0
   -1.4771  -17.0223   19.8317 N   0  0  0  0  0  0  0  0  0  0  0  0
   -1.0368  -15.7772   19.5400 C   0  0  0  0  0  0  0  0  0  0  0  0
    0.9075  -16.1374   19.2102 C   0  0  0  0  0  0  0  0  0  0  0  0
    2.1441  -14.7780   18.6143 C   0  0  0  0  0  0  0  0  0  0  0  0
    3.6223  -13.8208   18.2673 N   0  0  0  0  0  0  0  0  0  0  0  0
    3.9694  -12.2535   17.3148 C   0  0  0  0  0  0  0  0  0  0  0  0
    3.2728  -11.2147   17.3751 C   0  0  0  0  0  0  0  0  0  0  0  0
    3.0978  -12.0889   18.3214 N   0  0  0  0  0  0  0  0  0  0  0  0
    4.1368  -12.8726   19.0459 C   0  0  0  0  0  0  0  0  0  0  0  0
    1.5286  -15.5337   20.4092 C   0  0  0  0  0  0  0  0  0  0  0  0
   -0.0492  -16.7371   20.9254 C   0  0  0  0  0  0  0  0  0  0  0  0
   -1.9124  -19.1785   19.8421 H   0  0  0  0  0  0  0  0  0  0  0  0
   -3.1831  -20.8181   18.4954 H   0  0  0  0  0  0  0  0  0  0  0  0
   -5.1605  -22.3481   18.4339 H   0  0  0  0  0  0  0  0  0  0  0  0
   -7.2409  -23.2648   19.8658 H   0  0  0  0  0  0  0  0  0  0  0  0
   -8.3746  -22.4150   22.2392 H   0  0  0  0  0  0  0  0  0  0  0  0
   -4.7413  -19.0461   22.1232 H   0  0  0  0  0  0  0  0  0  0  0  0
   -1.6575  -15.2110   20.2585 H   0  0  0  0  0  0  0  0  0  0  0  0
   -1.5877  -15.4135   18.6625 H   0  0  0  0  0  0  0  0  0  0  0  0
    1.2835  -16.9980   18.4234 H   0  0  0  0  0  0  0  0  0  0  0  0
    0.8639  -17.2018   19.4377 H   0  0  0  0  0  0  0  0  0  0  0  0
    2.7235  -15.5115   18.0342 H   0  0  0  0  0  0  0  0  0  0  0  0
    4.3655  -12.2433   16.3098 H   0  0  0  0  0  0  0  0  0  0  0  0
    3.0210  -10.2139   17.1559 H   0  0  0  0  0  0  0  0  0  0  0  0
    4.4646  -12.8351   20.0782 H   0  0  0  0  0  0  0  0  0  0  0  0
    2.4131  -15.0248   20.7823 H   0  0  0  0  0  0  0  0  0  0  0  0
    1.1039  -14.9728   21.1897 H   0  0  0  0  0  0  0  0  0  0  0  0
   -0.3487  -16.1354   21.7351 H   0  0  0  0  0  0  0  0  0  0  0  0
    0.2238  -17.7152   21.2757 H   0  0  0  0  0  0  0  0  0  0  0  0
  1  2  2  0
  2  3  1  0
  3  4  1  0
  4  5  1  0
  5  6  2  0
  6  7  1  0
  7  8  1  0
  8  9  2  0
  9 10  1  0
 10 11  2  0
 11 12  1  0
  2 13  1  0
 13 14  1  0
 14 15  1  0
 15 16  1  0
 16 17  1  0
 17 18  1  0
 18 19  2  0
 19 20  1  0
 20 21  2  0
 16 22  1  0
 22 23  1  0
 12  4  2  0
 23 13  1  0
 11  7  1  0
 21 17  1  0
  3 24  1  0
  5 25  1  0
  6 26  1  0
  8 27  1  0
  9 28  1  0
 12 29  1  0
 14 30  1  0
 14 31  1  0
 15 32  1  0
 15 33  1  0
 16 34  1  0
 18 35  1  0
 19 36  1  0
 21 37  1  0
 22 38  1  0
 22 39  1  0
 23 40  1  0
 23 41  1  0
M  END
>  <Energy>  (935) 
1043.5724846981466

>  <compound_id>  (935) 
36272

>  <target_id>  (935) 
1

>  <reference_id>  (935) 
63

>  <inspiration_ids>  (935) 
[63, 45]

>  <energy_score>  (935) 
1030.767663919425

>  <distance_score>  (935) 
11.525458268805268

>  <path>  (935) 
/opt/xchem-fragalysis-2/maxwin/BulkDock/SCRATCH/511017/C36272-P63/C36272-P63.minimised.mol

>  <scratch_subdir>  (935) 
/opt/xchem-fragalysis-2/maxwin/BulkDock/SCRATCH/511017/C36272-P63

>  <fragmenstein_runtime>  (935) 
31.799496173858643

>  <fragmenstein_outcome>  (935) 
too moved

>  <fragmenstein_mode>  (935) 
expansion

>  <fragmenstein_error>  (935) 


$$$$
C36272-P45
     RDKit          3D

 41 44  0  0  0  0  0  0  0  0999 V2000
   -2.5084  -17.8174   18.2798 O   0  0  0  0  0  0  0  0  0  0  0  0
   -2.2653  -17.3731   19.3177 C   0  0  0  0  0  0  0  0  0  0  0  0
   -2.5782  -17.8409   20.5841 N   0  0  0  0  0  0  0  0  0  0  0  0
   -3.3606  -18.9247   20.9919 C   0  0  0  0  0  0  0  0  0  0  0  0
   -4.4266  -18.5751   21.9640 C   0  0  0  0  0  0  0  0  0  0  0  0
   -5.5338  -19.3144   22.1110 C   0  0  0  0  0  0  0  0  0  0  0  0
   -5.7193  -20.4202   21.3160 N   0  0  0  0  0  0  0  0  0  0  0  0
   -6.7332  -21.3402   21.3129 C   0  0  0  0  0  0  0  0  0  0  0  0
   -6.4517  -22.1811   20.2656 C   0  0  0  0  0  0  0  0  0  0  0  0
   -5.3112  -21.7798   19.6140 N   0  0  0  0  0  0  0  0  0  0  0  0
   -4.8590  -20.7329   20.2801 C   0  0  0  0  0  0  0  0  0  0  0  0
   -3.6564  -19.9463   20.1413 C   0  0  0  0  0  0  0  0  0  0  0  0
   -1.5394  -15.8794   19.6177 N   0  0  0  0  0  0  0  0  0  0  0  0
   -1.1641  -14.7232   18.6136 C   0  0  0  0  0  0  0  0  0  0  0  0
    0.4127  -13.7954   17.7551 C   0  0  0  0  0  0  0  0  0  0  0  0
    2.1554  -13.7691   18.1179 C   0  0  0  0  0  0  0  0  0  0  0  0
    3.2573  -12.1667   17.8888 N   0  0  0  0  0  0  0  0  0  0  0  0
    3.8160  -11.7951   16.7066 C   0  0  0  0  0  0  0  0  0  0  0  0
    3.6362  -10.7347   16.0203 C   0  0  0  0  0  0  0  0  0  0  0  0
    3.4186   -9.8233   16.8929 N   0  0  0  0  0  0  0  0  0  0  0  0
    2.7793  -10.4864   17.7337 C   0  0  0  0  0  0  0  0  0  0  0  0
    2.0827  -15.2006   18.7716 C   0  0  0  0  0  0  0  0  0  0  0  0
    0.4251  -16.0922   19.7248 C   0  0  0  0  0  0  0  0  0  0  0  0
   -2.2874  -17.1682   21.2529 H   0  0  0  0  0  0  0  0  0  0  0  0
   -4.4435  -17.5937   22.4252 H   0  0  0  0  0  0  0  0  0  0  0  0
   -6.3526  -19.0151   22.7422 H   0  0  0  0  0  0  0  0  0  0  0  0
   -7.5477  -21.3180   22.0186 H   0  0  0  0  0  0  0  0  0  0  0  0
   -7.0138  -23.0434   19.9297 H   0  0  0  0  0  0  0  0  0  0  0  0
   -3.0574  -20.1392   19.2566 H   0  0  0  0  0  0  0  0  0  0  0  0
   -1.8284  -14.9815   17.7365 H   0  0  0  0  0  0  0  0  0  0  0  0
   -1.8242  -13.8396   18.6827 H   0  0  0  0  0  0  0  0  0  0  0  0
    0.5928  -14.1703   16.7493 H   0  0  0  0  0  0  0  0  0  0  0  0
   -0.2204  -12.9259   17.7078 H   0  0  0  0  0  0  0  0  0  0  0  0
    3.1263  -14.2440   17.9078 H   0  0  0  0  0  0  0  0  0  0  0  0
    4.3557  -12.2909   15.9899 H   0  0  0  0  0  0  0  0  0  0  0  0
    3.9219  -10.7473   14.9556 H   0  0  0  0  0  0  0  0  0  0  0  0
    2.2595   -9.9175   18.4998 H   0  0  0  0  0  0  0  0  0  0  0  0
    2.6283  -15.8671   18.1064 H   0  0  0  0  0  0  0  0  0  0  0  0
    2.5615  -14.9161   19.6950 H   0  0  0  0  0  0  0  0  0  0  0  0
    0.6108  -16.0746   20.8056 H   0  0  0  0  0  0  0  0  0  0  0  0
    0.5003  -17.1795   19.7377 H   0  0  0  0  0  0  0  0  0  0  0  0
  1  2  2  0
  2  3  1  0
  3  4  1  0
  4  5  1  0
  5  6  2  0
  6  7  1  0
  7  8  1  0
  8  9  2  0
  9 10  1  0
 10 11  2  0
 11 12  1  0
  2 13  1  0
 13 14  1  0
 14 15  1  0
 15 16  1  0
 16 17  1  0
 17 18  1  0
 18 19  2  0
 19 20  1  0
 20 21  2  0
 16 22  1  0
 22 23  1  0
 12  4  2  0
 23 13  1  0
 11  7  1  0
 21 17  1  0
  3 24  1  0
  5 25  1  0
  6 26  1  0
  8 27  1  0
  9 28  1  0
 12 29  1  0
 14 30  1  0
 14 31  1  0
 15 32  1  0
 15 33  1  0
 16 34  1  0
 18 35  1  0
 19 36  1  0
 21 37  1  0
 22 38  1  0
 22 39  1  0
 23 40  1  0
 23 41  1  0
M  END
>  <Energy>  (936) 
664.0223455166639

>  <compound_id>  (936) 
36272

>  <target_id>  (936) 
1

>  <reference_id>  (936) 
45

>  <inspiration_ids>  (936) 
[63, 45]

>  <energy_score>  (936) 
651.2175247379279

>  <distance_score>  (936) 
11.50789644792569

>  <path>  (936) 
/opt/xchem-fragalysis-2/maxwin/BulkDock/SCRATCH/511017/C36272-P45/C36272-P45.minimised.mol

>  <scratch_subdir>  (936) 
/opt/xchem-fragalysis-2/maxwin/BulkDock/SCRATCH/511017/C36272-P45

>  <fragmenstein_runtime>  (936) 
31.610851049423218

>  <fragmenstein_outcome>  (936) 
too moved

>  <fragmenstein_mode>  (936) 
expansion

>  <fragmenstein_error>  (936) 


$$$$
C36273-P63
     RDKit          3D

 36 38  0  0  0  0  0  0  0  0999 V2000
    6.7854   -7.9831   19.7467 C   0  0  0  0  0  0  0  0  0  0  0  0
    7.2376   -9.9855   19.6612 N   0  0  0  0  0  0  0  0  0  0  0  0
    8.5046  -10.0967   18.9429 C   0  0  0  0  0  0  0  0  0  0  0  0
    8.1356  -10.5911   17.8168 C   0  0  0  0  0  0  0  0  0  0  0  0
    6.5038  -10.9763   18.3093 N   0  0  0  0  0  0  0  0  0  0  0  0
    6.2300  -11.3647   19.4971 C   0  0  0  0  0  0  0  0  0  0  0  0
    4.6850  -12.8809   19.9332 S   0  0  0  0  0  0  0  0  0  0  0  0
    2.8782  -14.4296   19.2384 C   0  0  0  0  0  0  0  0  0  0  0  0
    1.5402  -15.6012   20.3434 C   0  0  0  0  0  0  0  0  0  0  0  0
   -0.1452  -16.6695   20.3698 C   0  0  0  0  0  0  0  0  0  0  0  0
   -1.0663  -16.0522   19.8845 O   0  0  0  0  0  0  0  0  0  0  0  0
   -0.0949  -18.0234   20.8807 N   0  0  0  0  0  0  0  0  0  0  0  0
   -1.0867  -18.9630   21.0480 C   0  0  0  0  0  0  0  0  0  0  0  0
   -1.0921  -19.6532   22.3253 C   0  0  0  0  0  0  0  0  0  0  0  0
   -2.2739  -19.7380   22.9502 C   0  0  0  0  0  0  0  0  0  0  0  0
   -3.4374  -19.4983   22.2542 N   0  0  0  0  0  0  0  0  0  0  0  0
   -4.7228  -19.4530   22.7042 C   0  0  0  0  0  0  0  0  0  0  0  0
   -5.5021  -19.4549   21.5769 C   0  0  0  0  0  0  0  0  0  0  0  0
   -4.7181  -19.3526   20.4512 N   0  0  0  0  0  0  0  0  0  0  0  0
   -3.4760  -19.2841   20.8954 C   0  0  0  0  0  0  0  0  0  0  0  0
   -2.2279  -18.9064   20.3081 C   0  0  0  0  0  0  0  0  0  0  0  0
    7.0839   -7.4576   20.6596 H   0  0  0  0  0  0  0  0  0  0  0  0
    7.1745   -7.3226   19.0060 H   0  0  0  0  0  0  0  0  0  0  0  0
    5.7203   -7.9198   19.3303 H   0  0  0  0  0  0  0  0  0  0  0  0
    9.0822   -9.2299   19.0539 H   0  0  0  0  0  0  0  0  0  0  0  0
    8.5025  -10.5723   16.8013 H   0  0  0  0  0  0  0  0  0  0  0  0
    3.4672  -15.1172   18.5885 H   0  0  0  0  0  0  0  0  0  0  0  0
    2.3136  -14.0331   18.3763 H   0  0  0  0  0  0  0  0  0  0  0  0
    1.1918  -15.8949   19.3568 H   0  0  0  0  0  0  0  0  0  0  0  0
    1.1803  -15.0305   21.1204 H   0  0  0  0  0  0  0  0  0  0  0  0
    0.8055  -18.1841   21.2873 H   0  0  0  0  0  0  0  0  0  0  0  0
   -0.1613  -19.9214   22.8047 H   0  0  0  0  0  0  0  0  0  0  0  0
   -2.4051  -20.0445   23.9592 H   0  0  0  0  0  0  0  0  0  0  0  0
   -4.9209  -19.4368   23.7564 H   0  0  0  0  0  0  0  0  0  0  0  0
   -6.5816  -19.4766   21.5078 H   0  0  0  0  0  0  0  0  0  0  0  0
   -2.2830  -18.3198   19.3979 H   0  0  0  0  0  0  0  0  0  0  0  0
  1  2  1  0
  2  3  1  0
  3  4  2  0
  4  5  1  0
  5  6  2  0
  6  7  1  0
  7  8  1  0
  8  9  1  0
  9 10  1  0
 10 11  2  0
 10 12  1  0
 12 13  1  0
 13 14  1  0
 14 15  2  0
 15 16  1  0
 16 17  1  0
 17 18  2  0
 18 19  1  0
 19 20  2  0
 20 21  1  0
  6  2  1  0
 21 13  2  0
 20 16  1  0
  1 22  1  0
  1 23  1  0
  1 24  1  0
  3 25  1  0
  4 26  1  0
  8 27  1  0
  8 28  1  0
  9 29  1  0
  9 30  1  0
 12 31  1  0
 14 32  1  0
 15 33  1  0
 17 34  1  0
 18 35  1  0
 21 36  1  0
M  END
>  <Energy>  (937) 
782.77948113250216

>  <compound_id>  (937) 
36273

>  <target_id>  (937) 
1

>  <reference_id>  (937) 
63

>  <inspiration_ids>  (937) 
[63, 45]

>  <energy_score>  (937) 
750.7657579375033

>  <distance_score>  (937) 
11.00055528682437

>  <path>  (937) 
/opt/xchem-fragalysis-2/maxwin/BulkDock/SCRATCH/511017/C36273-P63/C36273-P63.minimised.mol

>  <scratch_subdir>  (937) 
/opt/xchem-fragalysis-2/maxwin/BulkDock/SCRATCH/511017/C36273-P63

>  <fragmenstein_runtime>  (937) 
28.748879194259644

>  <fragmenstein_outcome>  (937) 
too moved

>  <fragmenstein_mode>  (937) 
expansion

>  <fragmenstein_error>  (937) 


$$$$
C36273-P45
     RDKit          3D

 36 38  0  0  0  0  0  0  0  0999 V2000
    3.3329   -9.7410   13.6055 C   0  0  0  0  0  0  0  0  0  0  0  0
    4.0689  -10.8700   14.5156 N   0  0  0  0  0  0  0  0  0  0  0  0
    4.5187  -11.7420   13.4939 C   0  0  0  0  0  0  0  0  0  0  0  0
    3.2901  -12.2921   13.3126 C   0  0  0  0  0  0  0  0  0  0  0  0
    2.7298  -12.5106   14.5935 N   0  0  0  0  0  0  0  0  0  0  0  0
    3.3671  -11.7814   15.6608 C   0  0  0  0  0  0  0  0  0  0  0  0
    3.4348  -12.5060   17.9063 S   0  0  0  0  0  0  0  0  0  0  0  0
    2.2850  -14.6631   18.5468 C   0  0  0  0  0  0  0  0  0  0  0  0
    1.0277  -15.9264   19.8381 C   0  0  0  0  0  0  0  0  0  0  0  0
   -0.7914  -16.5304   20.0811 C   0  0  0  0  0  0  0  0  0  0  0  0
   -1.6836  -15.7708   19.7734 O   0  0  0  0  0  0  0  0  0  0  0  0
   -0.8408  -17.9454   20.5424 N   0  0  0  0  0  0  0  0  0  0  0  0
   -1.9044  -18.8208   20.6613 C   0  0  0  0  0  0  0  0  0  0  0  0
   -2.3208  -19.4461   19.4044 C   0  0  0  0  0  0  0  0  0  0  0  0
   -3.5136  -20.0546   19.3131 C   0  0  0  0  0  0  0  0  0  0  0  0
   -4.3390  -20.0797   20.4245 N   0  0  0  0  0  0  0  0  0  0  0  0
   -5.6192  -20.5519   20.5316 C   0  0  0  0  0  0  0  0  0  0  0  0
   -5.9952  -20.2738   21.8184 C   0  0  0  0  0  0  0  0  0  0  0  0
   -4.9632  -19.7060   22.5284 N   0  0  0  0  0  0  0  0  0  0  0  0
   -3.9643  -19.5931   21.6714 C   0  0  0  0  0  0  0  0  0  0  0  0
   -2.6557  -19.0090   21.7755 C   0  0  0  0  0  0  0  0  0  0  0  0
    2.6375  -10.2032   12.9010 H   0  0  0  0  0  0  0  0  0  0  0  0
    4.1695   -9.2646   13.0773 H   0  0  0  0  0  0  0  0  0  0  0  0
    2.7892   -9.0041   14.1943 H   0  0  0  0  0  0  0  0  0  0  0  0
    5.3042  -11.4600   12.8060 H   0  0  0  0  0  0  0  0  0  0  0  0
    2.8226  -12.6879   12.4165 H   0  0  0  0  0  0  0  0  0  0  0  0
    3.1846  -15.2467   18.3955 H   0  0  0  0  0  0  0  0  0  0  0  0
    1.7374  -14.6645   17.6192 H   0  0  0  0  0  0  0  0  0  0  0  0
    0.9635  -17.0124   19.4602 H   0  0  0  0  0  0  0  0  0  0  0  0
    1.2806  -15.6647   20.8178 H   0  0  0  0  0  0  0  0  0  0  0  0
    0.0905  -18.2454   20.7914 H   0  0  0  0  0  0  0  0  0  0  0  0
   -1.6595  -19.3805   18.5466 H   0  0  0  0  0  0  0  0  0  0  0  0
   -3.8815  -20.5002   18.3986 H   0  0  0  0  0  0  0  0  0  0  0  0
   -6.1458  -20.9929   19.6983 H   0  0  0  0  0  0  0  0  0  0  0  0
   -6.9646  -20.4577   22.2569 H   0  0  0  0  0  0  0  0  0  0  0  0
   -2.3854  -18.5869   22.7318 H   0  0  0  0  0  0  0  0  0  0  0  0
  1  2  1  0
  2  3  1  0
  3  4  2  0
  4  5  1  0
  5  6  2  0
  6  7  1  0
  7  8  1  0
  8  9  1  0
  9 10  1  0
 10 11  2  0
 10 12  1  0
 12 13  1  0
 13 14  1  0
 14 15  2  0
 15 16  1  0
 16 17  1  0
 17 18  2  0
 18 19  1  0
 19 20  2  0
 20 21  1  0
  6  2  1  0
 21 13  2  0
 20 16  1  0
  1 22  1  0
  1 23  1  0
  1 24  1  0
  3 25  1  0
  4 26  1  0
  8 27  1  0
  8 28  1  0
  9 29  1  0
  9 30  1  0
 12 31  1  0
 14 32  1  0
 15 33  1  0
 17 34  1  0
 18 35  1  0
 21 36  1  0
M  END
>  <Energy>  (938) 
596.7708252750856

>  <compound_id>  (938) 
36273

>  <target_id>  (938) 
1

>  <reference_id>  (938) 
45

>  <inspiration_ids>  (938) 
[63, 45]

>  <energy_score>  (938) 
564.7571020800797

>  <distance_score>  (938) 
11.985828917660731

>  <path>  (938) 
/opt/xchem-fragalysis-2/maxwin/BulkDock/SCRATCH/511017/C36273-P45/C36273-P45.minimised.mol

>  <scratch_subdir>  (938) 
/opt/xchem-fragalysis-2/maxwin/BulkDock/SCRATCH/511017/C36273-P45

>  <fragmenstein_runtime>  (938) 
32.52003574371338

>  <fragmenstein_outcome>  (938) 
too moved

>  <fragmenstein_mode>  (938) 
expansion

>  <fragmenstein_error>  (938) 


$$$$
C36274-P63
     RDKit          3D

 44 46  0  0  0  0  0  0  0  0999 V2000
    4.7366  -12.8122   20.3733 C   0  0  0  0  0  0  0  0  0  0  0  0
    4.1948  -13.3986   19.0692 C   0  0  0  0  0  0  0  0  0  0  0  0
    3.9031  -12.3680   18.0772 C   0  0  0  0  0  0  0  0  0  0  0  0
    3.3796  -14.5882   18.6990 C   0  0  0  0  0  0  0  0  0  0  0  0
    3.9197  -15.2628   17.7615 N   0  0  0  0  0  0  0  0  0  0  0  0
    2.7810  -15.4053   17.1312 C   0  0  0  0  0  0  0  0  0  0  0  0
    1.8549  -14.4528   17.6120 C   0  0  0  0  0  0  0  0  0  0  0  0
    2.0732  -15.0268   18.7923 N   0  0  0  0  0  0  0  0  0  0  0  0
    0.8619  -16.2206   19.7682 C   0  0  0  0  0  0  0  0  0  0  0  0
   -0.8263  -16.7560   20.2526 C   0  0  0  0  0  0  0  0  0  0  0  0
   -2.0488  -17.5378   19.5305 C   0  0  0  0  0  0  0  0  0  0  0  0
   -1.8350  -17.9871   18.4513 O   0  0  0  0  0  0  0  0  0  0  0  0
   -3.2564  -17.4814   20.2917 N   0  0  0  0  0  0  0  0  0  0  0  0
   -4.6063  -17.8617   19.9527 C   0  0  0  0  0  0  0  0  0  0  0  0
   -5.2768  -18.9401   20.7704 C   0  0  0  0  0  0  0  0  0  0  0  0
   -6.4394  -18.5406   21.5714 C   0  0  0  0  0  0  0  0  0  0  0  0
   -7.3697  -19.4535   21.8968 C   0  0  0  0  0  0  0  0  0  0  0  0
   -7.1532  -20.7855   21.5926 N   0  0  0  0  0  0  0  0  0  0  0  0
   -7.9533  -21.8742   21.8035 C   0  0  0  0  0  0  0  0  0  0  0  0
   -7.2452  -22.9336   21.3011 C   0  0  0  0  0  0  0  0  0  0  0  0
   -6.0547  -22.5318   20.7716 N   0  0  0  0  0  0  0  0  0  0  0  0
   -6.0174  -21.2317   20.9434 C   0  0  0  0  0  0  0  0  0  0  0  0
   -5.0848  -20.2499   20.4954 C   0  0  0  0  0  0  0  0  0  0  0  0
    5.5945  -13.3752   20.6779 H   0  0  0  0  0  0  0  0  0  0  0  0
    3.9889  -12.7891   21.1535 H   0  0  0  0  0  0  0  0  0  0  0  0
    5.3058  -11.8830   20.3075 H   0  0  0  0  0  0  0  0  0  0  0  0
    5.1589  -13.8785   18.9255 H   0  0  0  0  0  0  0  0  0  0  0  0
    4.8696  -11.9411   18.4014 H   0  0  0  0  0  0  0  0  0  0  0  0
    4.0383  -12.0907   17.0345 H   0  0  0  0  0  0  0  0  0  0  0  0
    3.0256  -11.8207   18.1423 H   0  0  0  0  0  0  0  0  0  0  0  0
    2.6921  -16.0970   16.3172 H   0  0  0  0  0  0  0  0  0  0  0  0
    0.9650  -14.0313   17.1979 H   0  0  0  0  0  0  0  0  0  0  0  0
    1.1599  -15.7446   20.6798 H   0  0  0  0  0  0  0  0  0  0  0  0
    0.0866  -15.6508   19.3660 H   0  0  0  0  0  0  0  0  0  0  0  0
   -0.6161  -17.2962   21.1757 H   0  0  0  0  0  0  0  0  0  0  0  0
   -1.4196  -15.8445   20.2990 H   0  0  0  0  0  0  0  0  0  0  0  0
   -3.0494  -17.0977   21.2145 H   0  0  0  0  0  0  0  0  0  0  0  0
   -4.5950  -18.1693   18.8988 H   0  0  0  0  0  0  0  0  0  0  0  0
   -5.1942  -16.9364   19.9798 H   0  0  0  0  0  0  0  0  0  0  0  0
   -6.5834  -17.4920   21.8099 H   0  0  0  0  0  0  0  0  0  0  0  0
   -8.2983  -19.2016   22.3892 H   0  0  0  0  0  0  0  0  0  0  0  0
   -8.9323  -21.8105   22.2512 H   0  0  0  0  0  0  0  0  0  0  0  0
   -7.5528  -23.9598   21.2522 H   0  0  0  0  0  0  0  0  0  0  0  0
   -4.3084  -20.5645   19.8039 H   0  0  0  0  0  0  0  0  0  0  0  0
  1  2  1  0
  2  3  1  0
  2  4  1  0
  4  5  2  0
  5  6  1  0
  6  7  2  0
  7  8  1  0
  8  9  1  0
  9 10  1  0
 10 11  1  0
 11 12  2  0
 11 13  1  0
 13 14  1  0
 14 15  1  0
 15 16  1  0
 16 17  2  0
 17 18  1  0
 18 19  1  0
 19 20  2  0
 20 21  1  0
 21 22  2  0
 22 23  1  0
  8  4  1  0
 23 15  2  0
 22 18  1  0
  1 24  1  0
  1 25  1  0
  1 26  1  0
  2 27  1  0
  3 28  1  0
  3 29  1  0
  3 30  1  0
  6 31  1  0
  7 32  1  0
  9 33  1  0
  9 34  1  0
 10 35  1  0
 10 36  1  0
 13 37  1  0
 14 38  1  0
 14 39  1  0
 16 40  1  0
 17 41  1  0
 19 42  1  0
 20 43  1  0
 23 44  1  0
M  END
>  <Energy>  (939) 
378.32622726892384

>  <compound_id>  (939) 
36274

>  <target_id>  (939) 
1

>  <reference_id>  (939) 
63

>  <inspiration_ids>  (939) 
[63, 45]

>  <energy_score>  (939) 
348.44823395905405

>  <distance_score>  (939) 
12.72440913998175

>  <path>  (939) 
/opt/xchem-fragalysis-2/maxwin/BulkDock/SCRATCH/511017/C36274-P63/C36274-P63.minimised.mol

>  <scratch_subdir>  (939) 
/opt/xchem-fragalysis-2/maxwin/BulkDock/SCRATCH/511017/C36274-P63

>  <fragmenstein_runtime>  (939) 
40.59398627281189

>  <fragmenstein_outcome>  (939) 
too moved

>  <fragmenstein_mode>  (939) 
expansion

>  <fragmenstein_error>  (939) 


$$$$
C36274-P45
     RDKit          3D

 44 46  0  0  0  0  0  0  0  0999 V2000
    1.0876   -5.5254   15.2837 C   0  0  0  0  0  0  0  0  0  0  0  0
    1.8407   -6.8667   15.1933 C   0  0  0  0  0  0  0  0  0  0  0  0
    2.8132   -6.7894   14.0245 C   0  0  0  0  0  0  0  0  0  0  0  0
    2.5067   -7.2258   16.5231 C   0  0  0  0  0  0  0  0  0  0  0  0
    2.8925   -6.2477   17.3283 N   0  0  0  0  0  0  0  0  0  0  0  0
    2.0049   -6.3869   18.3493 C   0  0  0  0  0  0  0  0  0  0  0  0
    1.4381   -7.6522   18.3229 C   0  0  0  0  0  0  0  0  0  0  0  0
    2.1520   -8.3510   17.3467 N   0  0  0  0  0  0  0  0  0  0  0  0
    2.8808   -9.8082   17.6424 C   0  0  0  0  0  0  0  0  0  0  0  0
    3.3043  -11.7309   17.2400 C   0  0  0  0  0  0  0  0  0  0  0  0
    3.1166  -13.5552   18.1935 C   0  0  0  0  0  0  0  0  0  0  0  0
    4.1288  -13.8003   18.8229 O   0  0  0  0  0  0  0  0  0  0  0  0
    1.6230  -14.4148   18.1551 N   0  0  0  0  0  0  0  0  0  0  0  0
    0.9666  -16.0196   19.2682 C   0  0  0  0  0  0  0  0  0  0  0  0
   -0.7193  -16.5321   20.0651 C   0  0  0  0  0  0  0  0  0  0  0  0
   -2.0583  -16.0773   19.5043 C   0  0  0  0  0  0  0  0  0  0  0  0
   -3.1866  -16.8005   19.6854 C   0  0  0  0  0  0  0  0  0  0  0  0
   -3.1706  -17.9342   20.4916 N   0  0  0  0  0  0  0  0  0  0  0  0
   -4.2232  -18.6720   20.9686 C   0  0  0  0  0  0  0  0  0  0  0  0
   -3.6784  -19.4629   21.9482 C   0  0  0  0  0  0  0  0  0  0  0  0
   -2.3129  -19.3502   21.9828 N   0  0  0  0  0  0  0  0  0  0  0  0
   -2.0215  -18.4054   21.1048 C   0  0  0  0  0  0  0  0  0  0  0  0
   -0.7869  -17.6786   20.8177 C   0  0  0  0  0  0  0  0  0  0  0  0
    1.7684   -4.6900   15.4831 H   0  0  0  0  0  0  0  0  0  0  0  0
    0.3342   -5.5462   16.0786 H   0  0  0  0  0  0  0  0  0  0  0  0
    0.5640   -5.3122   14.3450 H   0  0  0  0  0  0  0  0  0  0  0  0
    1.0689   -7.5947   14.9859 H   0  0  0  0  0  0  0  0  0  0  0  0
    2.3025   -6.4595   13.1127 H   0  0  0  0  0  0  0  0  0  0  0  0
    3.6196   -6.0790   14.2287 H   0  0  0  0  0  0  0  0  0  0  0  0
    3.2581   -7.7601   13.7979 H   0  0  0  0  0  0  0  0  0  0  0  0
    1.8530   -5.6101   19.0879 H   0  0  0  0  0  0  0  0  0  0  0  0
    0.7668   -8.1409   19.0118 H   0  0  0  0  0  0  0  0  0  0  0  0
    3.8414   -9.3679   17.8445 H   0  0  0  0  0  0  0  0  0  0  0  0
    2.3402   -9.8257   18.5639 H   0  0  0  0  0  0  0  0  0  0  0  0
    3.6181  -11.6618   16.1919 H   0  0  0  0  0  0  0  0  0  0  0  0
    4.2152  -11.8527   17.7296 H   0  0  0  0  0  0  0  0  0  0  0  0
    1.0045  -13.9979   17.4643 H   0  0  0  0  0  0  0  0  0  0  0  0
    1.3164  -15.7837   20.3270 H   0  0  0  0  0  0  0  0  0  0  0  0
    1.1808  -17.0882   18.8124 H   0  0  0  0  0  0  0  0  0  0  0  0
   -2.0910  -15.1633   18.9207 H   0  0  0  0  0  0  0  0  0  0  0  0
   -4.1474  -16.4980   19.2884 H   0  0  0  0  0  0  0  0  0  0  0  0
   -5.2413  -18.5013   20.6544 H   0  0  0  0  0  0  0  0  0  0  0  0
   -4.2139  -20.0945   22.6340 H   0  0  0  0  0  0  0  0  0  0  0  0
    0.0955  -18.0906   21.2639 H   0  0  0  0  0  0  0  0  0  0  0  0
  1  2  1  0
  2  3  1  0
  2  4  1  0
  4  5  2  0
  5  6  1  0
  6  7  2  0
  7  8  1  0
  8  9  1  0
  9 10  1  0
 10 11  1  0
 11 12  2  0
 11 13  1  0
 13 14  1  0
 14 15  1  0
 15 16  1  0
 16 17  2  0
 17 18  1  0
 18 19  1  0
 19 20  2  0
 20 21  1  0
 21 22  2  0
 22 23  1  0
  8  4  1  0
 23 15  2  0
 22 18  1  0
  1 24  1  0
  1 25  1  0
  1 26  1  0
  2 27  1  0
  3 28  1  0
  3 29  1  0
  3 30  1  0
  6 31  1  0
  7 32  1  0
  9 33  1  0
  9 34  1  0
 10 35  1  0
 10 36  1  0
 13 37  1  0
 14 38  1  0
 14 39  1  0
 16 40  1  0
 17 41  1  0
 19 42  1  0
 20 43  1  0
 23 44  1  0
M  END
>  <Energy>  (940) 
478.86610062785684

>  <compound_id>  (940) 
36274

>  <target_id>  (940) 
1

>  <reference_id>  (940) 
45

>  <inspiration_ids>  (940) 
[63, 45]

>  <energy_score>  (940) 
448.9881073179754

>  <distance_score>  (940) 
13.007609033405286

>  <path>  (940) 
/opt/xchem-fragalysis-2/maxwin/BulkDock/SCRATCH/511017/C36274-P45/C36274-P45.minimised.mol

>  <scratch_subdir>  (940) 
/opt/xchem-fragalysis-2/maxwin/BulkDock/SCRATCH/511017/C36274-P45

>  <fragmenstein_runtime>  (940) 
27.264033317565918

>  <fragmenstein_outcome>  (940) 
too moved

>  <fragmenstein_mode>  (940) 
expansion

>  <fragmenstein_error>  (940) 


$$$$
C36277-P63
     RDKit          3D

 34 36  0  0  0  0  0  0  0  0999 V2000
    8.2065   -9.0239   24.3795 O   0  0  0  0  0  0  0  0  0  0  0  0
    7.8528  -10.0143   25.0013 C   0  0  0  0  0  0  0  0  0  0  0  0
    8.2942  -11.2392   24.6593 O   0  0  0  0  0  0  0  0  0  0  0  0
    6.9181  -10.0174   26.1737 C   0  0  0  0  0  0  0  0  0  0  0  0
    5.6269  -10.5721   25.8364 N   0  0  0  0  0  0  0  0  0  0  0  0
    4.6419   -9.9602   25.1176 C   0  0  0  0  0  0  0  0  0  0  0  0
    3.5775  -10.7333   25.0204 N   0  0  0  0  0  0  0  0  0  0  0  0
    3.8803  -11.8921   25.7096 C   0  0  0  0  0  0  0  0  0  0  0  0
    3.0179  -12.9623   25.7377 N   0  0  0  0  0  0  0  0  0  0  0  0
    3.0531  -14.2311   26.4523 C   0  0  0  0  0  0  0  0  0  0  0  0
    4.0299  -14.7987   27.5247 O   0  0  0  0  0  0  0  0  0  0  0  0
    2.2910  -15.0043   26.4023 N   0  0  0  0  0  0  0  0  0  0  0  0
    1.9371  -16.3932   26.9181 C   0  0  0  0  0  0  0  0  0  0  0  0
    3.0433  -17.3303   27.2094 C   0  0  0  0  0  0  0  0  0  0  0  0
    2.8270  -18.5148   27.8115 C   0  0  0  0  0  0  0  0  0  0  0  0
    1.5370  -18.8805   28.1468 N   0  0  0  0  0  0  0  0  0  0  0  0
    1.0873  -19.9741   28.8421 C   0  0  0  0  0  0  0  0  0  0  0  0
   -0.2794  -19.8502   28.8599 C   0  0  0  0  0  0  0  0  0  0  0  0
   -0.6735  -18.7155   28.1829 N   0  0  0  0  0  0  0  0  0  0  0  0
    0.4325  -18.1164   27.8052 C   0  0  0  0  0  0  0  0  0  0  0  0
    0.6623  -16.8515   27.1663 C   0  0  0  0  0  0  0  0  0  0  0  0
    5.1366  -11.7802   26.2604 C   0  0  0  0  0  0  0  0  0  0  0  0
    8.8365  -11.1130   23.8516 H   0  0  0  0  0  0  0  0  0  0  0  0
    7.3586  -10.5861   26.9988 H   0  0  0  0  0  0  0  0  0  0  0  0
    6.7636   -8.9901   26.5204 H   0  0  0  0  0  0  0  0  0  0  0  0
    4.7398   -8.9665   24.7016 H   0  0  0  0  0  0  0  0  0  0  0  0
    2.1725  -12.9439   25.1834 H   0  0  0  0  0  0  0  0  0  0  0  0
    1.4169  -15.4005   26.1115 H   0  0  0  0  0  0  0  0  0  0  0  0
    4.0534  -17.0404   26.9350 H   0  0  0  0  0  0  0  0  0  0  0  0
    3.6262  -19.1996   28.0642 H   0  0  0  0  0  0  0  0  0  0  0  0
    1.7530  -20.7293   29.2318 H   0  0  0  0  0  0  0  0  0  0  0  0
   -0.9965  -20.5293   29.3015 H   0  0  0  0  0  0  0  0  0  0  0  0
   -0.2189  -16.2419   26.9940 H   0  0  0  0  0  0  0  0  0  0  0  0
    5.7174  -12.4721   26.8564 H   0  0  0  0  0  0  0  0  0  0  0  0
  1  2  2  0
  2  3  1  0
  2  4  1  0
  4  5  1  0
  5  6  1  0
  6  7  2  0
  7  8  1  0
  8  9  1  0
  9 10  1  0
 10 11  2  0
 10 12  1  0
 12 13  1  0
 13 14  1  0
 14 15  2  0
 15 16  1  0
 16 17  1  0
 17 18  2  0
 18 19  1  0
 19 20  2  0
 20 21  1  0
  8 22  2  0
 22  5  1  0
 21 13  2  0
 20 16  1  0
  3 23  1  0
  4 24  1  0
  4 25  1  0
  6 26  1  0
  9 27  1  0
 12 28  1  0
 14 29  1  0
 15 30  1  0
 17 31  1  0
 18 32  1  0
 21 33  1  0
 22 34  1  0
M  END
>  <Energy>  (941) 
148.11265386469174

>  <compound_id>  (941) 
36277

>  <target_id>  (941) 
1

>  <reference_id>  (941) 
63

>  <inspiration_ids>  (941) 
[63, 45]

>  <energy_score>  (941) 
162.4469042838307

>  <distance_score>  (941) 
14.143483998509586

>  <path>  (941) 
/opt/xchem-fragalysis-2/maxwin/BulkDock/SCRATCH/511017/C36277-P63/C36277-P63.minimised.mol

>  <scratch_subdir>  (941) 
/opt/xchem-fragalysis-2/maxwin/BulkDock/SCRATCH/511017/C36277-P63

>  <fragmenstein_runtime>  (941) 
25.627994060516357

>  <fragmenstein_outcome>  (941) 
too moved

>  <fragmenstein_mode>  (941) 
expansion

>  <fragmenstein_error>  (941) 


$$$$
C36277-P45
     RDKit          3D

 34 36  0  0  0  0  0  0  0  0999 V2000
   -1.0699   -4.2648   20.0435 O   0  0  0  0  0  0  0  0  0  0  0  0
    0.0114   -4.4571   19.5164 C   0  0  0  0  0  0  0  0  0  0  0  0
    0.4988   -3.5542   18.6360 O   0  0  0  0  0  0  0  0  0  0  0  0
    0.9532   -5.6127   19.7100 C   0  0  0  0  0  0  0  0  0  0  0  0
    0.4539   -6.5922   20.6538 N   0  0  0  0  0  0  0  0  0  0  0  0
    0.6213   -6.5712   22.0055 C   0  0  0  0  0  0  0  0  0  0  0  0
    0.1142   -7.6535   22.5653 N   0  0  0  0  0  0  0  0  0  0  0  0
   -0.4577   -8.3885   21.5518 C   0  0  0  0  0  0  0  0  0  0  0  0
   -1.1027   -9.6102   21.6770 N   0  0  0  0  0  0  0  0  0  0  0  0
   -1.5060  -10.4054   22.9267 C   0  0  0  0  0  0  0  0  0  0  0  0
   -1.4271  -10.1179   24.0701 O   0  0  0  0  0  0  0  0  0  0  0  0
   -2.0606  -11.6904   22.2597 N   0  0  0  0  0  0  0  0  0  0  0  0
   -2.6826  -12.8124   22.8190 C   0  0  0  0  0  0  0  0  0  0  0  0
   -3.0637  -13.9025   21.8904 C   0  0  0  0  0  0  0  0  0  0  0  0
   -3.7736  -14.9662   22.3189 C   0  0  0  0  0  0  0  0  0  0  0  0
   -4.1565  -15.0260   23.6507 N   0  0  0  0  0  0  0  0  0  0  0  0
   -5.0091  -15.8921   24.2817 C   0  0  0  0  0  0  0  0  0  0  0  0
   -5.1135  -15.4211   25.5714 C   0  0  0  0  0  0  0  0  0  0  0  0
   -4.2778  -14.3596   25.7761 N   0  0  0  0  0  0  0  0  0  0  0  0
   -3.7626  -14.0847   24.5934 C   0  0  0  0  0  0  0  0  0  0  0  0
   -2.9790  -12.9691   24.1334 C   0  0  0  0  0  0  0  0  0  0  0  0
   -0.2150   -7.7468   20.3496 C   0  0  0  0  0  0  0  0  0  0  0  0
   -0.2004   -2.8658   18.5890 H   0  0  0  0  0  0  0  0  0  0  0  0
    1.1108   -6.1200   18.7529 H   0  0  0  0  0  0  0  0  0  0  0  0
    1.9098   -5.2424   20.0925 H   0  0  0  0  0  0  0  0  0  0  0  0
    1.1148   -5.7657   22.5340 H   0  0  0  0  0  0  0  0  0  0  0  0
   -1.2294  -10.1811   20.8625 H   0  0  0  0  0  0  0  0  0  0  0  0
   -2.0552  -11.5781   21.2616 H   0  0  0  0  0  0  0  0  0  0  0  0
   -2.7733  -13.8250   20.8482 H   0  0  0  0  0  0  0  0  0  0  0  0
   -4.0992  -15.7657   21.6658 H   0  0  0  0  0  0  0  0  0  0  0  0
   -5.4976  -16.7066   23.7664 H   0  0  0  0  0  0  0  0  0  0  0  0
   -5.7346  -15.7936   26.3747 H   0  0  0  0  0  0  0  0  0  0  0  0
   -2.7230  -12.2105   24.8657 H   0  0  0  0  0  0  0  0  0  0  0  0
   -0.4663   -8.0152   19.3337 H   0  0  0  0  0  0  0  0  0  0  0  0
  1  2  2  0
  2  3  1  0
  2  4  1  0
  4  5  1  0
  5  6  1  0
  6  7  2  0
  7  8  1  0
  8  9  1  0
  9 10  1  0
 10 11  2  0
 10 12  1  0
 12 13  1  0
 13 14  1  0
 14 15  2  0
 15 16  1  0
 16 17  1  0
 17 18  2  0
 18 19  1  0
 19 20  2  0
 20 21  1  0
  8 22  2  0
 22  5  1  0
 21 13  2  0
 20 16  1  0
  3 23  1  0
  4 24  1  0
  4 25  1  0
  6 26  1  0
  9 27  1  0
 12 28  1  0
 14 29  1  0
 15 30  1  0
 17 31  1  0
 18 32  1  0
 21 33  1  0
 22 34  1  0
M  END
>  <Energy>  (942) 
-41.81656204903927

>  <compound_id>  (942) 
36277

>  <target_id>  (942) 
1

>  <reference_id>  (942) 
45

>  <inspiration_ids>  (942) 
[63, 45]

>  <energy_score>  (942) 
-27.482311629888613

>  <distance_score>  (942) 
14.611094784891693

>  <path>  (942) 
/opt/xchem-fragalysis-2/maxwin/BulkDock/SCRATCH/511017/C36277-P45/C36277-P45.minimised.mol

>  <scratch_subdir>  (942) 
/opt/xchem-fragalysis-2/maxwin/BulkDock/SCRATCH/511017/C36277-P45

>  <fragmenstein_runtime>  (942) 
25.462146520614624

>  <fragmenstein_outcome>  (942) 
too moved

>  <fragmenstein_mode>  (942) 
expansion

>  <fragmenstein_error>  (942) 


$$$$
C36278-P63
     RDKit          3D

 31 33  0  0  0  0  0  0  0  0999 V2000
    2.6430  -21.4395   14.7556 O   0  0  0  0  0  0  0  0  0  0  0  0
    2.6702  -20.4088   15.3216 C   0  0  0  0  0  0  0  0  0  0  0  0
    3.5086  -19.1571   15.0375 N   0  0  0  0  0  0  0  0  0  0  0  0
    4.4315  -18.8549   13.9368 C   0  0  0  0  0  0  0  0  0  0  0  0
    5.4572  -17.7226   14.1028 C   0  0  0  0  0  0  0  0  0  0  0  0
    6.2756  -17.4631   15.1115 N   0  0  0  0  0  0  0  0  0  0  0  0
    7.2005  -16.5481   14.6423 C   0  0  0  0  0  0  0  0  0  0  0  0
    6.8755  -16.1324   13.3783 C   0  0  0  0  0  0  0  0  0  0  0  0
    5.7839  -16.8864   13.0386 N   0  0  0  0  0  0  0  0  0  0  0  0
    1.8582  -19.9265   16.5193 N   0  0  0  0  0  0  0  0  0  0  0  0
    0.8048  -20.5324   17.2101 C   0  0  0  0  0  0  0  0  0  0  0  0
    0.1988  -19.7292   18.2850 C   0  0  0  0  0  0  0  0  0  0  0  0
   -0.9777  -20.0757   18.8366 C   0  0  0  0  0  0  0  0  0  0  0  0
   -1.5816  -21.2500   18.4271 N   0  0  0  0  0  0  0  0  0  0  0  0
   -2.8516  -21.7050   18.6570 C   0  0  0  0  0  0  0  0  0  0  0  0
   -2.8857  -22.9710   18.1241 C   0  0  0  0  0  0  0  0  0  0  0  0
   -1.7045  -23.2574   17.4829 N   0  0  0  0  0  0  0  0  0  0  0  0
   -0.9655  -22.1666   17.5870 C   0  0  0  0  0  0  0  0  0  0  0  0
    0.2595  -21.7488   16.9459 C   0  0  0  0  0  0  0  0  0  0  0  0
    3.3507  -18.4811   15.7584 H   0  0  0  0  0  0  0  0  0  0  0  0
    4.9717  -19.7818   13.7144 H   0  0  0  0  0  0  0  0  0  0  0  0
    3.7975  -18.6417   13.0685 H   0  0  0  0  0  0  0  0  0  0  0  0
    8.0445  -16.2337   15.2422 H   0  0  0  0  0  0  0  0  0  0  0  0
    7.3371  -15.4340   12.6933 H   0  0  0  0  0  0  0  0  0  0  0  0
    5.3330  -16.8999   12.1330 H   0  0  0  0  0  0  0  0  0  0  0  0
    2.1885  -19.0228   16.8037 H   0  0  0  0  0  0  0  0  0  0  0  0
    0.6793  -18.8044   18.5685 H   0  0  0  0  0  0  0  0  0  0  0  0
   -1.4953  -19.4680   19.5671 H   0  0  0  0  0  0  0  0  0  0  0  0
   -3.5878  -21.1074   19.1728 H   0  0  0  0  0  0  0  0  0  0  0  0
   -3.7014  -23.6827   18.1409 H   0  0  0  0  0  0  0  0  0  0  0  0
    0.6605  -22.3954   16.1733 H   0  0  0  0  0  0  0  0  0  0  0  0
  1  2  2  0
  2  3  1  0
  3  4  1  0
  4  5  1  0
  5  6  2  0
  6  7  1  0
  7  8  2  0
  8  9  1  0
  2 10  1  0
 10 11  1  0
 11 12  1  0
 12 13  2  0
 13 14  1  0
 14 15  1  0
 15 16  2  0
 16 17  1  0
 17 18  2  0
 18 19  1  0
  9  5  1  0
 19 11  2  0
 18 14  1  0
  3 20  1  0
  4 21  1  0
  4 22  1  0
  7 23  1  0
  8 24  1  0
  9 25  1  0
 10 26  1  0
 12 27  1  0
 13 28  1  0
 15 29  1  0
 16 30  1  0
 19 31  1  0
M  END
>  <Energy>  (943) 
-22.774665778719914

>  <compound_id>  (943) 
36278

>  <target_id>  (943) 
1

>  <reference_id>  (943) 
63

>  <inspiration_ids>  (943) 
[63, 45]

>  <energy_score>  (943) 
6.209416029225963

>  <distance_score>  (943) 
14.511964367307456

>  <path>  (943) 
/opt/xchem-fragalysis-2/maxwin/BulkDock/SCRATCH/511017/C36278-P63/C36278-P63.minimised.mol

>  <scratch_subdir>  (943) 
/opt/xchem-fragalysis-2/maxwin/BulkDock/SCRATCH/511017/C36278-P63

>  <fragmenstein_runtime>  (943) 
50.10397815704346

>  <fragmenstein_outcome>  (943) 
too moved

>  <fragmenstein_mode>  (943) 
expansion

>  <fragmenstein_error>  (943) 


$$$$
C36278-P45
     RDKit          3D

 31 33  0  0  0  0  0  0  0  0999 V2000
   -5.2719  -12.7813   19.4200 O   0  0  0  0  0  0  0  0  0  0  0  0
   -4.1484  -12.8626   19.7595 C   0  0  0  0  0  0  0  0  0  0  0  0
   -3.0612  -11.7797   19.8224 N   0  0  0  0  0  0  0  0  0  0  0  0
   -3.0842  -10.3739   19.3900 C   0  0  0  0  0  0  0  0  0  0  0  0
   -2.0515   -9.4148   19.9720 C   0  0  0  0  0  0  0  0  0  0  0  0
   -1.5663   -9.3470   21.2027 N   0  0  0  0  0  0  0  0  0  0  0  0
   -0.6464   -8.3113   21.1993 C   0  0  0  0  0  0  0  0  0  0  0  0
   -0.6167   -7.6789   19.9817 C   0  0  0  0  0  0  0  0  0  0  0  0
   -1.5093   -8.3793   19.2138 N   0  0  0  0  0  0  0  0  0  0  0  0
   -3.3880  -14.0435   20.3558 N   0  0  0  0  0  0  0  0  0  0  0  0
   -3.8323  -15.3114   20.7469 C   0  0  0  0  0  0  0  0  0  0  0  0
   -5.1737  -15.8068   20.4041 C   0  0  0  0  0  0  0  0  0  0  0  0
   -5.6159  -16.9919   20.8789 C   0  0  0  0  0  0  0  0  0  0  0  0
   -4.8007  -17.7397   21.7179 N   0  0  0  0  0  0  0  0  0  0  0  0
   -5.0308  -18.9344   22.3493 C   0  0  0  0  0  0  0  0  0  0  0  0
   -3.9174  -19.1469   23.1270 C   0  0  0  0  0  0  0  0  0  0  0  0
   -2.9891  -18.1581   22.9488 N   0  0  0  0  0  0  0  0  0  0  0  0
   -3.5309  -17.3276   22.0851 C   0  0  0  0  0  0  0  0  0  0  0  0
   -3.0525  -16.0958   21.5372 C   0  0  0  0  0  0  0  0  0  0  0  0
   -2.1876  -12.1993   20.0789 H   0  0  0  0  0  0  0  0  0  0  0  0
   -4.0875   -9.9912   19.6065 H   0  0  0  0  0  0  0  0  0  0  0  0
   -2.9800  -10.4000   18.2992 H   0  0  0  0  0  0  0  0  0  0  0  0
   -0.0612   -8.0855   22.0807 H   0  0  0  0  0  0  0  0  0  0  0  0
   -0.0400   -6.8508   19.5979 H   0  0  0  0  0  0  0  0  0  0  0  0
   -1.7064   -8.2112   18.2392 H   0  0  0  0  0  0  0  0  0  0  0  0
   -2.4652  -13.7508   20.6075 H   0  0  0  0  0  0  0  0  0  0  0  0
   -5.8025  -15.2065   19.7540 H   0  0  0  0  0  0  0  0  0  0  0  0
   -6.5957  -17.3895   20.6474 H   0  0  0  0  0  0  0  0  0  0  0  0
   -5.9498  -19.4852   22.2195 H   0  0  0  0  0  0  0  0  0  0  0  0
   -3.7273  -19.9461   23.8243 H   0  0  0  0  0  0  0  0  0  0  0  0
   -2.0589  -15.7960   21.8444 H   0  0  0  0  0  0  0  0  0  0  0  0
  1  2  2  0
  2  3  1  0
  3  4  1  0
  4  5  1  0
  5  6  2  0
  6  7  1  0
  7  8  2  0
  8  9  1  0
  2 10  1  0
 10 11  1  0
 11 12  1  0
 12 13  2  0
 13 14  1  0
 14 15  1  0
 15 16  2  0
 16 17  1  0
 17 18  2  0
 18 19  1  0
  9  5  1  0
 19 11  2  0
 18 14  1  0
  3 20  1  0
  4 21  1  0
  4 22  1  0
  7 23  1  0
  8 24  1  0
  9 25  1  0
 10 26  1  0
 12 27  1  0
 13 28  1  0
 15 29  1  0
 16 30  1  0
 19 31  1  0
M  END
>  <Energy>  (944) 
-28.245101368392394

>  <compound_id>  (944) 
36278

>  <target_id>  (944) 
1

>  <reference_id>  (944) 
45

>  <inspiration_ids>  (944) 
[63, 45]

>  <energy_score>  (944) 
0.7389804395498913

>  <distance_score>  (944) 
13.885837732424422

>  <path>  (944) 
/opt/xchem-fragalysis-2/maxwin/BulkDock/SCRATCH/511017/C36278-P45/C36278-P45.minimised.mol

>  <scratch_subdir>  (944) 
/opt/xchem-fragalysis-2/maxwin/BulkDock/SCRATCH/511017/C36278-P45

>  <fragmenstein_runtime>  (944) 
22.79187512397766

>  <fragmenstein_outcome>  (944) 
too moved

>  <fragmenstein_mode>  (944) 
expansion

>  <fragmenstein_error>  (944) 


$$$$
C36279-P63
     RDKit          3D

 31 33  0  0  0  0  0  0  0  0999 V2000
   -4.9661   -9.4795   25.3221 O   0  0  0  0  0  0  0  0  0  0  0  0
   -3.9564  -10.1667   25.4450 C   0  0  0  0  0  0  0  0  0  0  0  0
   -2.6953   -9.6943   25.1268 O   0  0  0  0  0  0  0  0  0  0  0  0
   -2.6671   -8.3222   24.5967 C   0  0  0  0  0  0  0  0  0  0  0  0
   -1.3595   -7.9432   23.8448 C   0  0  0  0  0  0  0  0  0  0  0  0
   -1.1692   -8.0365   22.5343 N   0  0  0  0  0  0  0  0  0  0  0  0
   -0.0267   -7.3324   22.2233 C   0  0  0  0  0  0  0  0  0  0  0  0
    0.5332   -6.8191   23.3660 C   0  0  0  0  0  0  0  0  0  0  0  0
   -0.2999   -7.2283   24.3874 N   0  0  0  0  0  0  0  0  0  0  0  0
   -0.1444   -6.8889   25.7901 C   0  0  0  0  0  0  0  0  0  0  0  0
    1.1599   -6.6695   26.0985 F   0  0  0  0  0  0  0  0  0  0  0  0
   -0.5645   -7.9046   26.5870 F   0  0  0  0  0  0  0  0  0  0  0  0
   -4.0667  -11.6215   25.9159 C   0  0  0  0  0  0  0  0  0  0  0  0
   -5.3453  -12.3568   25.6907 C   0  0  0  0  0  0  0  0  0  0  0  0
   -5.5185  -13.6202   26.1318 C   0  0  0  0  0  0  0  0  0  0  0  0
   -4.4906  -14.2307   26.8319 N   0  0  0  0  0  0  0  0  0  0  0  0
   -4.4445  -15.4508   27.4563 C   0  0  0  0  0  0  0  0  0  0  0  0
   -3.1904  -15.5202   28.0140 C   0  0  0  0  0  0  0  0  0  0  0  0
   -2.4744  -14.3860   27.7636 N   0  0  0  0  0  0  0  0  0  0  0  0
   -3.2711  -13.6099   27.0646 C   0  0  0  0  0  0  0  0  0  0  0  0
   -3.0840  -12.2720   26.5820 C   0  0  0  0  0  0  0  0  0  0  0  0
   -2.8264   -7.6332   25.4327 H   0  0  0  0  0  0  0  0  0  0  0  0
   -3.4856   -8.1997   23.8766 H   0  0  0  0  0  0  0  0  0  0  0  0
    0.3182   -7.2529   21.1986 H   0  0  0  0  0  0  0  0  0  0  0  0
    1.4165   -6.2199   23.5439 H   0  0  0  0  0  0  0  0  0  0  0  0
   -0.7280   -5.9881   26.0003 H   0  0  0  0  0  0  0  0  0  0  0  0
   -6.1378  -11.8358   25.1588 H   0  0  0  0  0  0  0  0  0  0  0  0
   -6.4349  -14.1813   25.9934 H   0  0  0  0  0  0  0  0  0  0  0  0
   -5.2937  -16.1183   27.4707 H   0  0  0  0  0  0  0  0  0  0  0  0
   -2.7386  -16.3031   28.6006 H   0  0  0  0  0  0  0  0  0  0  0  0
   -2.1373  -11.7960   26.8109 H   0  0  0  0  0  0  0  0  0  0  0  0
  1  2  2  0
  2  3  1  0
  3  4  1  0
  4  5  1  0
  5  6  2  0
  6  7  1  0
  7  8  2  0
  8  9  1  0
  9 10  1  0
 10 11  1  0
 10 12  1  0
  2 13  1  0
 13 14  1  0
 14 15  2  0
 15 16  1  0
 16 17  1  0
 17 18  2  0
 18 19  1  0
 19 20  2  0
 20 21  1  0
  9  5  1  0
 21 13  2  0
 20 16  1  0
  4 22  1  0
  4 23  1  0
  7 24  1  0
  8 25  1  0
 10 26  1  0
 14 27  1  0
 15 28  1  0
 17 29  1  0
 18 30  1  0
 21 31  1  0
M  END
>  <Energy>  (945) 
52.692306195877251

>  <compound_id>  (945) 
36279

>  <target_id>  (945) 
1

>  <reference_id>  (945) 
63

>  <inspiration_ids>  (945) 
[63, 45]

>  <energy_score>  (945) 
-19.63589966518373

>  <distance_score>  (945) 
15.122901884880337

>  <path>  (945) 
/opt/xchem-fragalysis-2/maxwin/BulkDock/SCRATCH/511017/C36279-P63/C36279-P63.minimised.mol

>  <scratch_subdir>  (945) 
/opt/xchem-fragalysis-2/maxwin/BulkDock/SCRATCH/511017/C36279-P63

>  <fragmenstein_runtime>  (945) 
23.63084125518799

>  <fragmenstein_outcome>  (945) 
too moved

>  <fragmenstein_mode>  (945) 
expansion

>  <fragmenstein_error>  (945) 


$$$$
C36279-P45
     RDKit          3D

 31 33  0  0  0  0  0  0  0  0999 V2000
   -1.9990  -15.8766   19.7185 O   0  0  0  0  0  0  0  0  0  0  0  0
   -1.6034  -17.0156   19.9019 C   0  0  0  0  0  0  0  0  0  0  0  0
   -0.2437  -17.2131   20.0561 O   0  0  0  0  0  0  0  0  0  0  0  0
    0.9005  -15.9938   20.2938 C   0  0  0  0  0  0  0  0  0  0  0  0
    2.4295  -14.8814   19.5137 C   0  0  0  0  0  0  0  0  0  0  0  0
    2.0050  -14.6069   18.1754 N   0  0  0  0  0  0  0  0  0  0  0  0
    2.8957  -15.2647   17.5069 C   0  0  0  0  0  0  0  0  0  0  0  0
    4.0746  -14.9863   18.0878 C   0  0  0  0  0  0  0  0  0  0  0  0
    3.6695  -13.9851   18.8440 N   0  0  0  0  0  0  0  0  0  0  0  0
    4.7504  -13.1860   19.6463 C   0  0  0  0  0  0  0  0  0  0  0  0
    4.3549  -12.7612   20.8572 F   0  0  0  0  0  0  0  0  0  0  0  0
    5.4955  -12.1852   19.0966 F   0  0  0  0  0  0  0  0  0  0  0  0
   -2.6470  -18.1651   19.8843 C   0  0  0  0  0  0  0  0  0  0  0  0
   -3.8868  -17.9032   20.6388 C   0  0  0  0  0  0  0  0  0  0  0  0
   -4.8968  -18.7800   20.7637 C   0  0  0  0  0  0  0  0  0  0  0  0
   -4.8104  -19.9727   20.0895 N   0  0  0  0  0  0  0  0  0  0  0  0
   -5.6964  -21.0165   20.0476 C   0  0  0  0  0  0  0  0  0  0  0  0
   -5.1473  -21.9097   19.1600 C   0  0  0  0  0  0  0  0  0  0  0  0
   -3.9345  -21.4523   18.6936 N   0  0  0  0  0  0  0  0  0  0  0  0
   -3.7515  -20.2664   19.2436 C   0  0  0  0  0  0  0  0  0  0  0  0
   -2.6998  -19.2787   19.1070 C   0  0  0  0  0  0  0  0  0  0  0  0
    0.6846  -15.6345   21.2996 H   0  0  0  0  0  0  0  0  0  0  0  0
    1.1971  -16.8283   20.7979 H   0  0  0  0  0  0  0  0  0  0  0  0
    2.6742  -15.8704   16.6469 H   0  0  0  0  0  0  0  0  0  0  0  0
    4.8434  -15.5911   18.4945 H   0  0  0  0  0  0  0  0  0  0  0  0
    5.5717  -13.8702   19.7557 H   0  0  0  0  0  0  0  0  0  0  0  0
   -3.9577  -16.9230   21.0940 H   0  0  0  0  0  0  0  0  0  0  0  0
   -5.7952  -18.5787   21.3321 H   0  0  0  0  0  0  0  0  0  0  0  0
   -6.6155  -21.0256   20.6143 H   0  0  0  0  0  0  0  0  0  0  0  0
   -5.5447  -22.8649   18.8402 H   0  0  0  0  0  0  0  0  0  0  0  0
   -1.9632  -19.4728   18.3383 H   0  0  0  0  0  0  0  0  0  0  0  0
  1  2  2  0
  2  3  1  0
  3  4  1  0
  4  5  1  0
  5  6  2  0
  6  7  1  0
  7  8  2  0
  8  9  1  0
  9 10  1  0
 10 11  1  0
 10 12  1  0
  2 13  1  0
 13 14  1  0
 14 15  2  0
 15 16  1  0
 16 17  1  0
 17 18  2  0
 18 19  1  0
 19 20  2  0
 20 21  1  0
  9  5  1  0
 21 13  2  0
 20 16  1  0
  4 22  1  0
  4 23  1  0
  7 24  1  0
  8 25  1  0
 10 26  1  0
 14 27  1  0
 15 28  1  0
 17 29  1  0
 18 30  1  0
 21 31  1  0
M  END
>  <Energy>  (946) 
441.27550346138167

>  <compound_id>  (946) 
36279

>  <target_id>  (946) 
1

>  <reference_id>  (946) 
45

>  <inspiration_ids>  (946) 
[63, 45]

>  <energy_score>  (946) 
368.94729760030873

>  <distance_score>  (946) 
13.552221934028303

>  <path>  (946) 
/opt/xchem-fragalysis-2/maxwin/BulkDock/SCRATCH/511017/C36279-P45/C36279-P45.minimised.mol

>  <scratch_subdir>  (946) 
/opt/xchem-fragalysis-2/maxwin/BulkDock/SCRATCH/511017/C36279-P45

>  <fragmenstein_runtime>  (946) 
12.464222431182861

>  <fragmenstein_outcome>  (946) 
too moved

>  <fragmenstein_mode>  (946) 
expansion

>  <fragmenstein_error>  (946) 


$$$$
C36280-P63
     RDKit          3D

 32 34  0  0  0  0  0  0  0  0999 V2000
   -1.6358  -15.6852   19.2537 O   0  0  0  0  0  0  0  0  0  0  0  0
   -0.6887  -16.1782   19.9047 C   0  0  0  0  0  0  0  0  0  0  0  0
    1.0888  -15.8477   19.7092 N   0  0  0  0  0  0  0  0  0  0  0  0
    2.1383  -14.4439   18.4472 C   0  0  0  0  0  0  0  0  0  0  0  0
    3.2259  -12.6028   18.0218 C   0  0  0  0  0  0  0  0  0  0  0  0
    2.8867  -11.8217   16.6258 N   0  0  0  0  0  0  0  0  0  0  0  0
    3.7974  -11.3544   15.7359 C   0  0  0  0  0  0  0  0  0  0  0  0
    3.8916  -10.2665   16.4712 C   0  0  0  0  0  0  0  0  0  0  0  0
    3.0398  -10.7985   17.5367 N   0  0  0  0  0  0  0  0  0  0  0  0
    2.4195   -9.3837   18.0839 C   0  0  0  0  0  0  0  0  0  0  0  0
    1.9446   -9.2352   19.3154 F   0  0  0  0  0  0  0  0  0  0  0  0
    1.5278   -8.6741   17.3092 F   0  0  0  0  0  0  0  0  0  0  0  0
   -1.2231  -17.2151   20.9054 C   0  0  0  0  0  0  0  0  0  0  0  0
   -2.0322  -16.6519   22.0089 C   0  0  0  0  0  0  0  0  0  0  0  0
   -3.0525  -17.3121   22.5764 C   0  0  0  0  0  0  0  0  0  0  0  0
   -3.4490  -18.5073   22.0221 N   0  0  0  0  0  0  0  0  0  0  0  0
   -4.5807  -19.2272   22.2895 C   0  0  0  0  0  0  0  0  0  0  0  0
   -4.6890  -20.1024   21.2414 C   0  0  0  0  0  0  0  0  0  0  0  0
   -3.5785  -20.0350   20.4262 N   0  0  0  0  0  0  0  0  0  0  0  0
   -2.8213  -19.0721   20.9193 C   0  0  0  0  0  0  0  0  0  0  0  0
   -1.6442  -18.4079   20.3909 C   0  0  0  0  0  0  0  0  0  0  0  0
    1.5619  -16.2928   20.3799 H   0  0  0  0  0  0  0  0  0  0  0  0
    2.7919  -14.4250   19.2809 H   0  0  0  0  0  0  0  0  0  0  0  0
    1.2708  -13.9733   18.0022 H   0  0  0  0  0  0  0  0  0  0  0  0
    3.9215  -11.5622   14.6847 H   0  0  0  0  0  0  0  0  0  0  0  0
    4.1611   -9.2266   16.3080 H   0  0  0  0  0  0  0  0  0  0  0  0
    3.3049   -8.7583   18.0049 H   0  0  0  0  0  0  0  0  0  0  0  0
   -1.7837  -15.6532   22.3399 H   0  0  0  0  0  0  0  0  0  0  0  0
   -3.6535  -16.9024   23.3760 H   0  0  0  0  0  0  0  0  0  0  0  0
   -5.2352  -18.9856   23.1117 H   0  0  0  0  0  0  0  0  0  0  0  0
   -5.4937  -20.7968   21.0347 H   0  0  0  0  0  0  0  0  0  0  0  0
   -1.2891  -18.7529   19.4246 H   0  0  0  0  0  0  0  0  0  0  0  0
  1  2  2  0
  2  3  1  0
  3  4  1  0
  4  5  1  0
  5  6  2  0
  6  7  1  0
  7  8  2  0
  8  9  1  0
  9 10  1  0
 10 11  1  0
 10 12  1  0
  2 13  1  0
 13 14  1  0
 14 15  2  0
 15 16  1  0
 16 17  1  0
 17 18  2  0
 18 19  1  0
 19 20  2  0
 20 21  1  0
  9  5  1  0
 21 13  2  0
 20 16  1  0
  3 22  1  0
  4 23  1  0
  4 24  1  0
  7 25  1  0
  8 26  1  0
 10 27  1  0
 14 28  1  0
 15 29  1  0
 17 30  1  0
 18 31  1  0
 21 32  1  0
M  END
>  <Energy>  (947) 
813.53394007043062

>  <compound_id>  (947) 
36280

>  <target_id>  (947) 
1

>  <reference_id>  (947) 
63

>  <inspiration_ids>  (947) 
[63, 45]

>  <energy_score>  (947) 
772.1635658072407

>  <distance_score>  (947) 
12.696928859397199

>  <path>  (947) 
/opt/xchem-fragalysis-2/maxwin/BulkDock/SCRATCH/511017/C36280-P63/C36280-P63.minimised.mol

>  <scratch_subdir>  (947) 
/opt/xchem-fragalysis-2/maxwin/BulkDock/SCRATCH/511017/C36280-P63

>  <fragmenstein_runtime>  (947) 
34.980764865875244

>  <fragmenstein_outcome>  (947) 
too moved

>  <fragmenstein_mode>  (947) 
expansion

>  <fragmenstein_error>  (947) 


$$$$
C36280-P45
     RDKit          3D

 32 34  0  0  0  0  0  0  0  0999 V2000
    2.4945  -14.8997   21.1700 O   0  0  0  0  0  0  0  0  0  0  0  0
    1.9822  -15.2333   20.1844 C   0  0  0  0  0  0  0  0  0  0  0  0
    2.4638  -14.5280   18.5993 N   0  0  0  0  0  0  0  0  0  0  0  0
    3.6514  -13.1603   18.1822 C   0  0  0  0  0  0  0  0  0  0  0  0
    3.6012  -11.5721   16.9391 C   0  0  0  0  0  0  0  0  0  0  0  0
    3.5025  -10.2071   17.2761 N   0  0  0  0  0  0  0  0  0  0  0  0
    3.9829   -9.2190   16.3549 C   0  0  0  0  0  0  0  0  0  0  0  0
    4.1249   -9.8217   15.1337 C   0  0  0  0  0  0  0  0  0  0  0  0
    3.8400  -11.2603   15.3437 N   0  0  0  0  0  0  0  0  0  0  0  0
    3.5844  -11.9846   14.0705 C   0  0  0  0  0  0  0  0  0  0  0  0
    3.1982  -11.1204   13.0719 F   0  0  0  0  0  0  0  0  0  0  0  0
    4.6741  -12.6123   13.5453 F   0  0  0  0  0  0  0  0  0  0  0  0
    0.4280  -16.5214   20.5377 C   0  0  0  0  0  0  0  0  0  0  0  0
    0.4011  -17.8642   21.5959 C   0  0  0  0  0  0  0  0  0  0  0  0
   -0.6283  -18.5782   22.0752 C   0  0  0  0  0  0  0  0  0  0  0  0
   -1.8834  -18.2594   21.6938 N   0  0  0  0  0  0  0  0  0  0  0  0
   -3.0811  -18.8033   22.0742 C   0  0  0  0  0  0  0  0  0  0  0  0
   -4.0204  -18.0990   21.3668 C   0  0  0  0  0  0  0  0  0  0  0  0
   -3.4152  -17.1476   20.5742 N   0  0  0  0  0  0  0  0  0  0  0  0
   -2.1113  -17.2606   20.7853 C   0  0  0  0  0  0  0  0  0  0  0  0
   -0.9897  -16.4760   20.2686 C   0  0  0  0  0  0  0  0  0  0  0  0
    1.9674  -15.0028   17.8666 H   0  0  0  0  0  0  0  0  0  0  0  0
    4.2215  -12.8598   19.0859 H   0  0  0  0  0  0  0  0  0  0  0  0
    4.2548  -14.0429   17.8973 H   0  0  0  0  0  0  0  0  0  0  0  0
    4.0679   -8.1854   16.6506 H   0  0  0  0  0  0  0  0  0  0  0  0
    4.3732   -9.4716   14.1428 H   0  0  0  0  0  0  0  0  0  0  0  0
    2.7543  -12.6846   14.1647 H   0  0  0  0  0  0  0  0  0  0  0  0
    1.3159  -18.3363   21.9413 H   0  0  0  0  0  0  0  0  0  0  0  0
   -0.5005  -19.4208   22.7431 H   0  0  0  0  0  0  0  0  0  0  0  0
   -3.1518  -19.6047   22.7939 H   0  0  0  0  0  0  0  0  0  0  0  0
   -5.0962  -18.2155   21.3814 H   0  0  0  0  0  0  0  0  0  0  0  0
   -1.4276  -15.6987   19.6424 H   0  0  0  0  0  0  0  0  0  0  0  0
  1  2  2  0
  2  3  1  0
  3  4  1  0
  4  5  1  0
  5  6  2  0
  6  7  1  0
  7  8  2  0
  8  9  1  0
  9 10  1  0
 10 11  1  0
 10 12  1  0
  2 13  1  0
 13 14  1  0
 14 15  2  0
 15 16  1  0
 16 17  1  0
 17 18  2  0
 18 19  1  0
 19 20  2  0
 20 21  1  0
  9  5  1  0
 21 13  2  0
 20 16  1  0
  3 22  1  0
  4 23  1  0
  4 24  1  0
  7 25  1  0
  8 26  1  0
 10 27  1  0
 14 28  1  0
 15 29  1  0
 17 30  1  0
 18 31  1  0
 21 32  1  0
M  END
>  <Energy>  (948) 
434.98191947760887

>  <compound_id>  (948) 
36280

>  <target_id>  (948) 
1

>  <reference_id>  (948) 
45

>  <inspiration_ids>  (948) 
[63, 45]

>  <energy_score>  (948) 
393.611545214407

>  <distance_score>  (948) 
13.117505936978828

>  <path>  (948) 
/opt/xchem-fragalysis-2/maxwin/BulkDock/SCRATCH/511017/C36280-P45/C36280-P45.minimised.mol

>  <scratch_subdir>  (948) 
/opt/xchem-fragalysis-2/maxwin/BulkDock/SCRATCH/511017/C36280-P45

>  <fragmenstein_runtime>  (948) 
23.539603233337402

>  <fragmenstein_outcome>  (948) 
too moved

>  <fragmenstein_mode>  (948) 
expansion

>  <fragmenstein_error>  (948) 


$$$$
C36281-P63
     RDKit          3D

 36 38  0  0  0  0  0  0  0  0999 V2000
    0.1594   -9.6237   21.3454 C   0  0  0  0  0  0  0  0  0  0  0  0
   -0.8155  -11.3731   21.8246 C   0  0  0  0  0  0  0  0  0  0  0  0
   -1.8073  -11.4901   20.9571 N   0  0  0  0  0  0  0  0  0  0  0  0
   -1.6565  -10.4640   21.6557 C   0  0  0  0  0  0  0  0  0  0  0  0
   -0.1745  -11.2072   22.4794 N   0  0  0  0  0  0  0  0  0  0  0  0
   -0.3063  -13.0434   22.7713 C   0  0  0  0  0  0  0  0  0  0  0  0
   -1.1611  -14.8384   23.8118 C   0  0  0  0  0  0  0  0  0  0  0  0
   -2.3577  -16.6716   24.4806 C   0  0  0  0  0  0  0  0  0  0  0  0
   -3.5580  -15.9710   24.9025 O   0  0  0  0  0  0  0  0  0  0  0  0
   -3.1158  -18.7201   24.0213 C   0  0  0  0  0  0  0  0  0  0  0  0
   -2.4924  -19.1911   23.0799 O   0  0  0  0  0  0  0  0  0  0  0  0
   -4.5056  -19.8813   24.8614 N   0  0  0  0  0  0  0  0  0  0  0  0
   -5.0457  -21.7414   24.5889 C   0  0  0  0  0  0  0  0  0  0  0  0
   -5.5775  -23.1439   23.4801 C   0  0  0  0  0  0  0  0  0  0  0  0
   -4.8408  -24.3594   23.6658 C   0  0  0  0  0  0  0  0  0  0  0  0
   -4.1508  -24.8956   25.0569 N   0  0  0  0  0  0  0  0  0  0  0  0
   -3.5780  -25.3520   26.8858 C   0  0  0  0  0  0  0  0  0  0  0  0
   -4.6503  -26.8709   27.4606 C   0  0  0  0  0  0  0  0  0  0  0  0
   -6.3417  -26.7392   26.3619 N   0  0  0  0  0  0  0  0  0  0  0  0
   -5.9708  -25.0608   25.1131 C   0  0  0  0  0  0  0  0  0  0  0  0
   -5.8315  -23.1510   25.4652 C   0  0  0  0  0  0  0  0  0  0  0  0
   -0.4122   -9.0720   20.5695 H   0  0  0  0  0  0  0  0  0  0  0  0
    0.0549   -8.9355   22.2142 H   0  0  0  0  0  0  0  0  0  0  0  0
    1.1791   -9.7199   21.0715 H   0  0  0  0  0  0  0  0  0  0  0  0
   -1.9965   -9.4513   21.9300 H   0  0  0  0  0  0  0  0  0  0  0  0
    0.5372  -10.7194   23.0358 H   0  0  0  0  0  0  0  0  0  0  0  0
   -0.7731  -15.1022   22.8171 H   0  0  0  0  0  0  0  0  0  0  0  0
   -0.6317  -14.6353   24.7648 H   0  0  0  0  0  0  0  0  0  0  0  0
   -1.7758  -16.8951   25.3913 H   0  0  0  0  0  0  0  0  0  0  0  0
   -4.1740  -16.0312   24.1449 H   0  0  0  0  0  0  0  0  0  0  0  0
   -4.8681  -19.4156   25.6526 H   0  0  0  0  0  0  0  0  0  0  0  0
   -6.0748  -22.8437   22.5539 H   0  0  0  0  0  0  0  0  0  0  0  0
   -4.7292  -25.0931   22.8660 H   0  0  0  0  0  0  0  0  0  0  0  0
   -2.5173  -25.4851   26.7046 H   0  0  0  0  0  0  0  0  0  0  0  0
   -4.2742  -27.8812   27.5456 H   0  0  0  0  0  0  0  0  0  0  0  0
   -5.9915  -22.9797   26.5403 H   0  0  0  0  0  0  0  0  0  0  0  0
  1  2  1  0
  2  3  1  0
  3  4  2  0
  4  5  1  0
  5  6  1  0
  6  7  1  0
  7  8  1  0
  8  9  1  0
  8 10  1  0
 10 11  2  0
 10 12  1  0
 12 13  1  0
 13 14  1  0
 14 15  2  0
 15 16  1  0
 16 17  1  0
 17 18  2  0
 18 19  1  0
 19 20  2  0
 20 21  1  0
  6  2  2  0
 21 13  2  0
 20 16  1  0
  1 22  1  0
  1 23  1  0
  1 24  1  0
  4 25  1  0
  5 26  1  0
  7 27  1  0
  7 28  1  0
  8 29  1  0
  9 30  1  0
 12 31  1  0
 14 32  1  0
 15 33  1  0
 17 34  1  0
 18 35  1  0
 21 36  1  0
M  END
>  <Energy>  (949) 
2882.0579834140858

>  <compound_id>  (949) 
36281

>  <target_id>  (949) 
1

>  <reference_id>  (949) 
63

>  <inspiration_ids>  (949) 
[63, 45]

>  <energy_score>  (949) 
2781.104020662785

>  <distance_score>  (949) 
11.614776938642507

>  <path>  (949) 
/opt/xchem-fragalysis-2/maxwin/BulkDock/SCRATCH/511017/C36281-P63/C36281-P63.minimised.mol

>  <scratch_subdir>  (949) 
/opt/xchem-fragalysis-2/maxwin/BulkDock/SCRATCH/511017/C36281-P63

>  <fragmenstein_runtime>  (949) 
20.16743302345276

>  <fragmenstein_outcome>  (949) 
too moved

>  <fragmenstein_mode>  (949) 
expansion

>  <fragmenstein_error>  (949) 


$$$$
C36281-P45
     RDKit          3D

 36 38  0  0  0  0  0  0  0  0999 V2000
    6.0058  -15.2969   12.2137 C   0  0  0  0  0  0  0  0  0  0  0  0
    6.9284  -15.7115   13.2870 C   0  0  0  0  0  0  0  0  0  0  0  0
    7.8711  -14.7738   13.6573 N   0  0  0  0  0  0  0  0  0  0  0  0
    8.6869  -15.3903   14.4651 C   0  0  0  0  0  0  0  0  0  0  0  0
    8.2371  -16.6493   14.7345 N   0  0  0  0  0  0  0  0  0  0  0  0
    7.0719  -16.8997   14.0125 C   0  0  0  0  0  0  0  0  0  0  0  0
    6.4419  -18.3362   14.0298 C   0  0  0  0  0  0  0  0  0  0  0  0
    4.8960  -18.5574   14.2715 C   0  0  0  0  0  0  0  0  0  0  0  0
    4.2477  -18.5203   13.0075 O   0  0  0  0  0  0  0  0  0  0  0  0
    4.5011  -19.9261   15.1095 C   0  0  0  0  0  0  0  0  0  0  0  0
    5.3213  -20.8051   15.1729 O   0  0  0  0  0  0  0  0  0  0  0  0
    3.1765  -19.7980   15.7517 N   0  0  0  0  0  0  0  0  0  0  0  0
    2.5216  -20.6197   16.7006 C   0  0  0  0  0  0  0  0  0  0  0  0
    1.5129  -19.9174   17.5181 C   0  0  0  0  0  0  0  0  0  0  0  0
    0.9023  -20.4836   18.5735 C   0  0  0  0  0  0  0  0  0  0  0  0
    1.2041  -21.7906   18.8891 N   0  0  0  0  0  0  0  0  0  0  0  0
    0.7904  -22.5422   19.9559 C   0  0  0  0  0  0  0  0  0  0  0  0
    1.3292  -23.7865   19.7490 C   0  0  0  0  0  0  0  0  0  0  0  0
    2.1020  -23.8010   18.6089 N   0  0  0  0  0  0  0  0  0  0  0  0
    2.0712  -22.5672   18.1303 C   0  0  0  0  0  0  0  0  0  0  0  0
    2.7713  -21.9154   17.0309 C   0  0  0  0  0  0  0  0  0  0  0  0
    5.1341  -15.9545   12.1624 H   0  0  0  0  0  0  0  0  0  0  0  0
    5.6572  -14.2720   12.3713 H   0  0  0  0  0  0  0  0  0  0  0  0
    6.5146  -15.3375   11.2454 H   0  0  0  0  0  0  0  0  0  0  0  0
    9.5919  -14.9819   14.8956 H   0  0  0  0  0  0  0  0  0  0  0  0
    8.7213  -17.3179   15.3169 H   0  0  0  0  0  0  0  0  0  0  0  0
    6.9839  -18.8911   14.8064 H   0  0  0  0  0  0  0  0  0  0  0  0
    6.7170  -18.7942   13.0703 H   0  0  0  0  0  0  0  0  0  0  0  0
    4.5351  -17.7207   14.8731 H   0  0  0  0  0  0  0  0  0  0  0  0
    4.4090  -19.3755   12.5710 H   0  0  0  0  0  0  0  0  0  0  0  0
    2.7882  -18.8761   15.5379 H   0  0  0  0  0  0  0  0  0  0  0  0
    1.3952  -18.8615   17.3497 H   0  0  0  0  0  0  0  0  0  0  0  0
    0.2298  -19.9499   19.2320 H   0  0  0  0  0  0  0  0  0  0  0  0
    0.1843  -22.1212   20.7432 H   0  0  0  0  0  0  0  0  0  0  0  0
    1.2280  -24.6707   20.3632 H   0  0  0  0  0  0  0  0  0  0  0  0
    3.5248  -22.4937   16.5093 H   0  0  0  0  0  0  0  0  0  0  0  0
  1  2  1  0
  2  3  1  0
  3  4  2  0
  4  5  1  0
  5  6  1  0
  6  7  1  0
  7  8  1  0
  8  9  1  0
  8 10  1  0
 10 11  2  0
 10 12  1  0
 12 13  1  0
 13 14  1  0
 14 15  2  0
 15 16  1  0
 16 17  1  0
 17 18  2  0
 18 19  1  0
 19 20  2  0
 20 21  1  0
  6  2  2  0
 21 13  2  0
 20 16  1  0
  1 22  1  0
  1 23  1  0
  1 24  1  0
  4 25  1  0
  5 26  1  0
  7 27  1  0
  7 28  1  0
  8 29  1  0
  9 30  1  0
 12 31  1  0
 14 32  1  0
 15 33  1  0
 17 34  1  0
 18 35  1  0
 21 36  1  0
M  END
>  <Energy>  (950) 
73.780569217203038

>  <compound_id>  (950) 
36281

>  <target_id>  (950) 
1

>  <reference_id>  (950) 
45

>  <inspiration_ids>  (950) 
[63, 45]

>  <energy_score>  (950) 
-27.17339353404975

>  <distance_score>  (950) 
14.735568886180639

>  <path>  (950) 
/opt/xchem-fragalysis-2/maxwin/BulkDock/SCRATCH/511017/C36281-P45/C36281-P45.minimised.mol

>  <scratch_subdir>  (950) 
/opt/xchem-fragalysis-2/maxwin/BulkDock/SCRATCH/511017/C36281-P45

>  <fragmenstein_runtime>  (950) 
26.829121589660645

>  <fragmenstein_outcome>  (950) 
too moved

>  <fragmenstein_mode>  (950) 
expansion

>  <fragmenstein_error>  (950) 


$$$$
C36283-P63
     RDKit          3D

 32 34  0  0  0  0  0  0  0  0999 V2000
    0.8558  -18.1486   29.9316 C   0  0  0  0  0  0  0  0  0  0  0  0
    0.0926  -18.1039   28.7031 N   0  0  0  0  0  0  0  0  0  0  0  0
    0.0941  -17.0110   27.8661 C   0  0  0  0  0  0  0  0  0  0  0  0
   -0.8249  -17.3048   26.9017 C   0  0  0  0  0  0  0  0  0  0  0  0
   -1.3487  -18.5620   27.1015 N   0  0  0  0  0  0  0  0  0  0  0  0
   -0.8258  -19.0661   28.2274 C   0  0  0  0  0  0  0  0  0  0  0  0
   -1.1212  -20.5514   28.9180 C   0  0  0  0  0  0  0  0  0  0  0  0
    0.1964  -20.5022   29.5312 F   0  0  0  0  0  0  0  0  0  0  0  0
   -0.7275  -21.6601   28.2374 F   0  0  0  0  0  0  0  0  0  0  0  0
   -1.8281  -21.1049   30.3154 C   0  0  0  0  0  0  0  0  0  0  0  0
   -1.1998  -20.6371   31.3057 O   0  0  0  0  0  0  0  0  0  0  0  0
   -3.2611  -22.4170   30.4024 N   0  0  0  0  0  0  0  0  0  0  0  0
   -3.9173  -23.3787   31.8173 C   0  0  0  0  0  0  0  0  0  0  0  0
   -5.3932  -24.1856   31.9872 C   0  0  0  0  0  0  0  0  0  0  0  0
   -5.7335  -25.2383   32.9214 C   0  0  0  0  0  0  0  0  0  0  0  0
   -4.7955  -25.8092   33.7780 N   0  0  0  0  0  0  0  0  0  0  0  0
   -4.9205  -26.7876   34.7186 C   0  0  0  0  0  0  0  0  0  0  0  0
   -3.6662  -26.9053   35.2659 C   0  0  0  0  0  0  0  0  0  0  0  0
   -2.7943  -26.0061   34.7087 N   0  0  0  0  0  0  0  0  0  0  0  0
   -3.5015  -25.3503   33.8145 C   0  0  0  0  0  0  0  0  0  0  0  0
   -3.0835  -24.2793   32.8216 C   0  0  0  0  0  0  0  0  0  0  0  0
    1.2181  -17.1438   30.1678 H   0  0  0  0  0  0  0  0  0  0  0  0
    0.2082  -18.4839   30.7435 H   0  0  0  0  0  0  0  0  0  0  0  0
    1.7103  -18.8137   29.7877 H   0  0  0  0  0  0  0  0  0  0  0  0
    0.6982  -16.1357   28.0558 H   0  0  0  0  0  0  0  0  0  0  0  0
   -1.1625  -16.6842   26.0842 H   0  0  0  0  0  0  0  0  0  0  0  0
   -3.6257  -22.5797   29.4812 H   0  0  0  0  0  0  0  0  0  0  0  0
   -6.1754  -23.4590   31.9541 H   0  0  0  0  0  0  0  0  0  0  0  0
   -6.7736  -25.5204   33.1197 H   0  0  0  0  0  0  0  0  0  0  0  0
   -5.8481  -27.3103   34.8973 H   0  0  0  0  0  0  0  0  0  0  0  0
   -3.3440  -27.5891   36.0408 H   0  0  0  0  0  0  0  0  0  0  0  0
   -2.0700  -24.4973   32.9865 H   0  0  0  0  0  0  0  0  0  0  0  0
  1  2  1  0
  2  3  1  0
  3  4  2  0
  4  5  1  0
  5  6  2  0
  6  7  1  0
  7  8  1  0
  7  9  1  0
  7 10  1  0
 10 11  2  0
 10 12  1  0
 12 13  1  0
 13 14  1  0
 14 15  2  0
 15 16  1  0
 16 17  1  0
 17 18  2  0
 18 19  1  0
 19 20  2  0
 20 21  1  0
  6  2  1  0
 21 13  2  0
 20 16  1  0
  1 22  1  0
  1 23  1  0
  1 24  1  0
  3 25  1  0
  4 26  1  0
 12 27  1  0
 14 28  1  0
 15 29  1  0
 17 30  1  0
 18 31  1  0
 21 32  1  0
M  END
>  <Energy>  (951) 
465.2143848413541

>  <compound_id>  (951) 
36283

>  <target_id>  (951) 
1

>  <reference_id>  (951) 
63

>  <inspiration_ids>  (951) 
[63, 45]

>  <energy_score>  (951) 
334.9123094563199

>  <distance_score>  (951) 
15.63239449797211

>  <path>  (951) 
/opt/xchem-fragalysis-2/maxwin/BulkDock/SCRATCH/511017/C36283-P63/C36283-P63.minimised.mol

>  <scratch_subdir>  (951) 
/opt/xchem-fragalysis-2/maxwin/BulkDock/SCRATCH/511017/C36283-P63

>  <fragmenstein_runtime>  (951) 
47.56288433074951

>  <fragmenstein_outcome>  (951) 
too moved

>  <fragmenstein_mode>  (951) 
expansion

>  <fragmenstein_error>  (951) 


$$$$
C36283-P45
     RDKit          3D

 32 34  0  0  0  0  0  0  0  0999 V2000
   10.3271  -16.8505   21.6703 C   0  0  0  0  0  0  0  0  0  0  0  0
    9.7129  -16.6033   20.3840 N   0  0  0  0  0  0  0  0  0  0  0  0
   10.1661  -15.6809   19.4778 C   0  0  0  0  0  0  0  0  0  0  0  0
    9.4413  -15.9291   18.3452 C   0  0  0  0  0  0  0  0  0  0  0  0
    8.4855  -16.8914   18.5778 N   0  0  0  0  0  0  0  0  0  0  0  0
    8.6688  -17.3377   19.8149 C   0  0  0  0  0  0  0  0  0  0  0  0
    8.0183  -18.5393   20.5612 C   0  0  0  0  0  0  0  0  0  0  0  0
    8.9696  -19.5274   20.6837 F   0  0  0  0  0  0  0  0  0  0  0  0
    7.7672  -18.1902   21.8725 F   0  0  0  0  0  0  0  0  0  0  0  0
    6.6809  -19.2057   19.9598 C   0  0  0  0  0  0  0  0  0  0  0  0
    6.5035  -19.2917   18.7719 O   0  0  0  0  0  0  0  0  0  0  0  0
    5.8635  -19.7285   21.1102 N   0  0  0  0  0  0  0  0  0  0  0  0
    4.6270  -20.3781   21.1317 C   0  0  0  0  0  0  0  0  0  0  0  0
    4.0646  -20.9508   19.9044 C   0  0  0  0  0  0  0  0  0  0  0  0
    2.8006  -21.4159   19.8804 C   0  0  0  0  0  0  0  0  0  0  0  0
    2.0269  -21.3392   21.0269 N   0  0  0  0  0  0  0  0  0  0  0  0
    0.6914  -21.5771   21.1879 C   0  0  0  0  0  0  0  0  0  0  0  0
    0.4144  -21.2180   22.4822 C   0  0  0  0  0  0  0  0  0  0  0  0
    1.5547  -20.8241   23.1402 N   0  0  0  0  0  0  0  0  0  0  0  0
    2.5174  -20.8898   22.2425 C   0  0  0  0  0  0  0  0  0  0  0  0
    3.8901  -20.4632   22.2760 C   0  0  0  0  0  0  0  0  0  0  0  0
    9.6200  -16.5906   22.4593 H   0  0  0  0  0  0  0  0  0  0  0  0
   11.2247  -16.2338   21.7679 H   0  0  0  0  0  0  0  0  0  0  0  0
   10.6062  -17.9050   21.7302 H   0  0  0  0  0  0  0  0  0  0  0  0
   10.9805  -15.0010   19.6849 H   0  0  0  0  0  0  0  0  0  0  0  0
    9.5477  -15.4670   17.3735 H   0  0  0  0  0  0  0  0  0  0  0  0
    6.2672  -19.3987   21.9851 H   0  0  0  0  0  0  0  0  0  0  0  0
    4.6749  -20.9811   19.0068 H   0  0  0  0  0  0  0  0  0  0  0  0
    2.3373  -21.8101   18.9848 H   0  0  0  0  0  0  0  0  0  0  0  0
    0.0653  -21.9127   20.3759 H   0  0  0  0  0  0  0  0  0  0  0  0
   -0.5521  -21.2171   22.9658 H   0  0  0  0  0  0  0  0  0  0  0  0
    4.2489  -20.0655   23.2184 H   0  0  0  0  0  0  0  0  0  0  0  0
  1  2  1  0
  2  3  1  0
  3  4  2  0
  4  5  1  0
  5  6  2  0
  6  7  1  0
  7  8  1  0
  7  9  1  0
  7 10  1  0
 10 11  2  0
 10 12  1  0
 12 13  1  0
 13 14  1  0
 14 15  2  0
 15 16  1  0
 16 17  1  0
 17 18  2  0
 18 19  1  0
 19 20  2  0
 20 21  1  0
  6  2  1  0
 21 13  2  0
 20 16  1  0
  1 22  1  0
  1 23  1  0
  1 24  1  0
  3 25  1  0
  4 26  1  0
 12 27  1  0
 14 28  1  0
 15 29  1  0
 17 30  1  0
 18 31  1  0
 21 32  1  0
M  END
>  <Energy>  (952) 
124.68203369420603

>  <compound_id>  (952) 
36283

>  <target_id>  (952) 
1

>  <reference_id>  (952) 
45

>  <inspiration_ids>  (952) 
[63, 45]

>  <energy_score>  (952) 
-5.620041690815015

>  <distance_score>  (952) 
14.385461561994864

>  <path>  (952) 
/opt/xchem-fragalysis-2/maxwin/BulkDock/SCRATCH/511017/C36283-P45/C36283-P45.minimised.mol

>  <scratch_subdir>  (952) 
/opt/xchem-fragalysis-2/maxwin/BulkDock/SCRATCH/511017/C36283-P45

>  <fragmenstein_runtime>  (952) 
30.01347017288208

>  <fragmenstein_outcome>  (952) 
too moved

>  <fragmenstein_mode>  (952) 
expansion

>  <fragmenstein_error>  (952) 


$$$$
C36284-P63
     RDKit          3D

 32 34  0  0  0  0  0  0  0  0999 V2000
    4.4672  -15.3321   28.3581 O   0  0  0  0  0  0  0  0  0  0  0  0
    4.9151  -16.0195   27.4791 C   0  0  0  0  0  0  0  0  0  0  0  0
    6.0034  -15.3972   26.5005 C   0  0  0  0  0  0  0  0  0  0  0  0
    6.6705  -14.0786   27.0111 C   0  0  0  0  0  0  0  0  0  0  0  0
    7.5179  -13.2370   26.0272 C   0  0  0  0  0  0  0  0  0  0  0  0
    8.6241  -13.5716   25.3804 N   0  0  0  0  0  0  0  0  0  0  0  0
    9.0471  -12.4441   24.6976 C   0  0  0  0  0  0  0  0  0  0  0  0
    8.1976  -11.3941   24.9291 C   0  0  0  0  0  0  0  0  0  0  0  0
    7.2671  -11.8950   25.8001 N   0  0  0  0  0  0  0  0  0  0  0  0
    4.5849  -17.4041   27.0767 N   0  0  0  0  0  0  0  0  0  0  0  0
    3.5947  -18.2851   27.5389 C   0  0  0  0  0  0  0  0  0  0  0  0
    3.6998  -19.6894   27.0795 C   0  0  0  0  0  0  0  0  0  0  0  0
    2.8399  -20.6317   27.5183 C   0  0  0  0  0  0  0  0  0  0  0  0
    1.7954  -20.2639   28.3596 N   0  0  0  0  0  0  0  0  0  0  0  0
    0.7908  -21.0262   28.9044 C   0  0  0  0  0  0  0  0  0  0  0  0
   -0.0531  -20.1302   29.5150 C   0  0  0  0  0  0  0  0  0  0  0  0
    0.4433  -18.8505   29.4305 N   0  0  0  0  0  0  0  0  0  0  0  0
    1.5717  -18.9476   28.7482 C   0  0  0  0  0  0  0  0  0  0  0  0
    2.5490  -17.9624   28.3452 C   0  0  0  0  0  0  0  0  0  0  0  0
    6.7829  -16.1440   26.3132 H   0  0  0  0  0  0  0  0  0  0  0  0
    5.4833  -15.2021   25.5569 H   0  0  0  0  0  0  0  0  0  0  0  0
    5.8954  -13.4261   27.4283 H   0  0  0  0  0  0  0  0  0  0  0  0
    7.3239  -14.3358   27.8550 H   0  0  0  0  0  0  0  0  0  0  0  0
    9.9341  -12.4655   24.0786 H   0  0  0  0  0  0  0  0  0  0  0  0
    8.1780  -10.3685   24.5882 H   0  0  0  0  0  0  0  0  0  0  0  0
    6.5304  -11.3771   26.2501 H   0  0  0  0  0  0  0  0  0  0  0  0
    5.2192  -17.6972   26.3444 H   0  0  0  0  0  0  0  0  0  0  0  0
    4.5094  -19.9601   26.4105 H   0  0  0  0  0  0  0  0  0  0  0  0
    2.8974  -21.6736   27.2299 H   0  0  0  0  0  0  0  0  0  0  0  0
    0.7179  -22.0932   28.7441 H   0  0  0  0  0  0  0  0  0  0  0  0
   -0.9937  -20.3389   30.0069 H   0  0  0  0  0  0  0  0  0  0  0  0
    2.4041  -16.9485   28.7025 H   0  0  0  0  0  0  0  0  0  0  0  0
  1  2  2  0
  2  3  1  0
  3  4  1  0
  4  5  1  0
  5  6  2  0
  6  7  1  0
  7  8  2  0
  8  9  1  0
  2 10  1  0
 10 11  1  0
 11 12  1  0
 12 13  2  0
 13 14  1  0
 14 15  1  0
 15 16  2  0
 16 17  1  0
 17 18  2  0
 18 19  1  0
  9  5  1  0
 19 11  2  0
 18 14  1  0
  3 20  1  0
  3 21  1  0
  4 22  1  0
  4 23  1  0
  7 24  1  0
  8 25  1  0
  9 26  1  0
 10 27  1  0
 12 28  1  0
 13 29  1  0
 15 30  1  0
 16 31  1  0
 19 32  1  0
M  END
>  <Energy>  (953) 
9.9936900479393884

>  <compound_id>  (953) 
36284

>  <target_id>  (953) 
1

>  <reference_id>  (953) 
63

>  <inspiration_ids>  (953) 
[63, 45]

>  <energy_score>  (953) 
-21.46698567625674

>  <distance_score>  (953) 
13.693961897928899

>  <path>  (953) 
/opt/xchem-fragalysis-2/maxwin/BulkDock/SCRATCH/511017/C36284-P63/C36284-P63.minimised.mol

>  <scratch_subdir>  (953) 
/opt/xchem-fragalysis-2/maxwin/BulkDock/SCRATCH/511017/C36284-P63

>  <fragmenstein_runtime>  (953) 
26.1181800365448

>  <fragmenstein_outcome>  (953) 
too moved

>  <fragmenstein_mode>  (953) 
expansion

>  <fragmenstein_error>  (953) 


$$$$
C36284-P45
     RDKit          3D

 32 34  0  0  0  0  0  0  0  0999 V2000
   -4.2536  -19.5112   17.2768 O   0  0  0  0  0  0  0  0  0  0  0  0
   -3.8588  -20.5888   17.6377 C   0  0  0  0  0  0  0  0  0  0  0  0
   -2.4855  -21.0182   17.1277 C   0  0  0  0  0  0  0  0  0  0  0  0
   -1.3301  -20.6865   18.0708 C   0  0  0  0  0  0  0  0  0  0  0  0
   -1.2091  -19.2853   18.6072 C   0  0  0  0  0  0  0  0  0  0  0  0
   -0.2732  -18.8905   19.4475 N   0  0  0  0  0  0  0  0  0  0  0  0
   -0.7886  -17.7870   20.0609 C   0  0  0  0  0  0  0  0  0  0  0  0
   -1.9856  -17.4296   19.5035 C   0  0  0  0  0  0  0  0  0  0  0  0
   -2.1626  -18.3030   18.4750 N   0  0  0  0  0  0  0  0  0  0  0  0
   -4.4274  -21.5406   18.5682 N   0  0  0  0  0  0  0  0  0  0  0  0
   -5.5337  -21.4573   19.3792 C   0  0  0  0  0  0  0  0  0  0  0  0
   -6.1738  -20.1522   19.5199 C   0  0  0  0  0  0  0  0  0  0  0  0
   -7.2897  -20.0209   20.2478 C   0  0  0  0  0  0  0  0  0  0  0  0
   -7.8044  -21.1306   20.8808 N   0  0  0  0  0  0  0  0  0  0  0  0
   -8.9734  -21.2482   21.5682 C   0  0  0  0  0  0  0  0  0  0  0  0
   -8.9737  -22.5308   22.0433 C   0  0  0  0  0  0  0  0  0  0  0  0
   -7.8529  -23.2127   21.6375 N   0  0  0  0  0  0  0  0  0  0  0  0
   -7.1899  -22.3726   20.8763 C   0  0  0  0  0  0  0  0  0  0  0  0
   -6.0219  -22.5206   20.0655 C   0  0  0  0  0  0  0  0  0  0  0  0
   -2.4977  -22.0934   16.9138 H   0  0  0  0  0  0  0  0  0  0  0  0
   -2.3260  -20.5212   16.1618 H   0  0  0  0  0  0  0  0  0  0  0  0
   -0.3885  -20.9357   17.5659 H   0  0  0  0  0  0  0  0  0  0  0  0
   -1.3975  -21.3528   18.9410 H   0  0  0  0  0  0  0  0  0  0  0  0
   -0.2795  -17.2922   20.8657 H   0  0  0  0  0  0  0  0  0  0  0  0
   -2.7000  -16.6636   19.7377 H   0  0  0  0  0  0  0  0  0  0  0  0
   -2.9797  -18.3413   17.8745 H   0  0  0  0  0  0  0  0  0  0  0  0
   -3.8626  -22.3832   18.5662 H   0  0  0  0  0  0  0  0  0  0  0  0
   -5.7636  -19.2785   19.0284 H   0  0  0  0  0  0  0  0  0  0  0  0
   -7.8206  -19.0838   20.3537 H   0  0  0  0  0  0  0  0  0  0  0  0
   -9.6734  -20.4331   21.6796 H   0  0  0  0  0  0  0  0  0  0  0  0
   -9.7350  -22.9818   22.6638 H   0  0  0  0  0  0  0  0  0  0  0  0
   -5.5816  -23.5094   20.0065 H   0  0  0  0  0  0  0  0  0  0  0  0
  1  2  2  0
  2  3  1  0
  3  4  1  0
  4  5  1  0
  5  6  2  0
  6  7  1  0
  7  8  2  0
  8  9  1  0
  2 10  1  0
 10 11  1  0
 11 12  1  0
 12 13  2  0
 13 14  1  0
 14 15  1  0
 15 16  2  0
 16 17  1  0
 17 18  2  0
 18 19  1  0
  9  5  1  0
 19 11  2  0
 18 14  1  0
  3 20  1  0
  3 21  1  0
  4 22  1  0
  4 23  1  0
  7 24  1  0
  8 25  1  0
  9 26  1  0
 10 27  1  0
 12 28  1  0
 13 29  1  0
 15 30  1  0
 16 31  1  0
 19 32  1  0
M  END
>  <Energy>  (954) 
7.8269619721759067

>  <compound_id>  (954) 
36284

>  <target_id>  (954) 
1

>  <reference_id>  (954) 
45

>  <inspiration_ids>  (954) 
[63, 45]

>  <energy_score>  (954) 
-23.63371375202007

>  <distance_score>  (954) 
14.865865995801

>  <path>  (954) 
/opt/xchem-fragalysis-2/maxwin/BulkDock/SCRATCH/511017/C36284-P45/C36284-P45.minimised.mol

>  <scratch_subdir>  (954) 
/opt/xchem-fragalysis-2/maxwin/BulkDock/SCRATCH/511017/C36284-P45

>  <fragmenstein_runtime>  (954) 
25.713688373565674

>  <fragmenstein_outcome>  (954) 
too moved

>  <fragmenstein_mode>  (954) 
expansion

>  <fragmenstein_error>  (954) 


$$$$
C36285-P63
     RDKit          3D

 34 36  0  0  0  0  0  0  0  0999 V2000
    5.9605  -14.9110   30.1581 C   0  0  0  0  0  0  0  0  0  0  0  0
    5.8605  -14.8096   28.7224 N   0  0  0  0  0  0  0  0  0  0  0  0
    6.6011  -13.9529   27.9378 C   0  0  0  0  0  0  0  0  0  0  0  0
    6.3371  -14.1100   26.6642 N   0  0  0  0  0  0  0  0  0  0  0  0
    5.4050  -15.1294   26.6432 C   0  0  0  0  0  0  0  0  0  0  0  0
    5.0328  -15.5656   27.9164 C   0  0  0  0  0  0  0  0  0  0  0  0
    3.6204  -16.6158   28.3994 S   0  0  0  0  0  0  0  0  0  0  0  0
    2.4435  -15.3189   28.8435 C   0  0  0  0  0  0  0  0  0  0  0  0
    3.2400  -17.2887   27.1814 O   0  0  0  0  0  0  0  0  0  0  0  0
    3.8653  -17.4355   29.6772 N   0  0  0  0  0  0  0  0  0  0  0  0
    2.6716  -17.9503   30.2644 C   0  0  0  0  0  0  0  0  0  0  0  0
    2.0739  -17.2750   31.1039 O   0  0  0  0  0  0  0  0  0  0  0  0
    2.0210  -19.2273   29.8428 C   0  0  0  0  0  0  0  0  0  0  0  0
    0.5834  -19.2550   29.5660 C   0  0  0  0  0  0  0  0  0  0  0  0
    0.0105  -20.4335   29.2968 C   0  0  0  0  0  0  0  0  0  0  0  0
    0.7997  -21.5691   29.3186 N   0  0  0  0  0  0  0  0  0  0  0  0
    0.4408  -22.8558   29.1426 C   0  0  0  0  0  0  0  0  0  0  0  0
    1.5417  -23.6178   29.4244 C   0  0  0  0  0  0  0  0  0  0  0  0
    2.6096  -22.8203   29.7113 N   0  0  0  0  0  0  0  0  0  0  0  0
    2.1489  -21.5922   29.6148 C   0  0  0  0  0  0  0  0  0  0  0  0
    2.7737  -20.3438   29.8397 C   0  0  0  0  0  0  0  0  0  0  0  0
    6.7105  -14.2035   30.5217 H   0  0  0  0  0  0  0  0  0  0  0  0
    6.2653  -15.9283   30.4147 H   0  0  0  0  0  0  0  0  0  0  0  0
    4.9902  -14.6698   30.5966 H   0  0  0  0  0  0  0  0  0  0  0  0
    7.3166  -13.2545   28.3528 H   0  0  0  0  0  0  0  0  0  0  0  0
    4.9899  -15.4784   25.7054 H   0  0  0  0  0  0  0  0  0  0  0  0
    2.7094  -14.9289   29.8290 H   0  0  0  0  0  0  0  0  0  0  0  0
    1.4450  -15.7541   28.8772 H   0  0  0  0  0  0  0  0  0  0  0  0
    2.4781  -14.4960   28.1319 H   0  0  0  0  0  0  0  0  0  0  0  0
    0.0160  -18.3312   29.5865 H   0  0  0  0  0  0  0  0  0  0  0  0
   -1.0395  -20.5565   29.0871 H   0  0  0  0  0  0  0  0  0  0  0  0
   -0.5631  -23.0808   28.8463 H   0  0  0  0  0  0  0  0  0  0  0  0
    1.6292  -24.6940   29.4285 H   0  0  0  0  0  0  0  0  0  0  0  0
    3.8337  -20.3342   30.0714 H   0  0  0  0  0  0  0  0  0  0  0  0
  1  2  1  0
  2  3  1  0
  3  4  2  0
  4  5  1  0
  5  6  2  0
  6  7  1  0
  7  8  1  0
  7  9  2  0
  7 10  2  0
 10 11  1  0
 11 12  2  0
 11 13  1  0
 13 14  1  0
 14 15  2  0
 15 16  1  0
 16 17  1  0
 17 18  2  0
 18 19  1  0
 19 20  2  0
 20 21  1  0
  6  2  1  0
 21 13  2  0
 20 16  1  0
  1 22  1  0
  1 23  1  0
  1 24  1  0
  3 25  1  0
  5 26  1  0
  8 27  1  0
  8 28  1  0
  8 29  1  0
 14 30  1  0
 15 31  1  0
 17 32  1  0
 18 33  1  0
 21 34  1  0
M  END
>  <Energy>  (955) 
-13.296729372558573

>  <compound_id>  (955) 
36285

>  <target_id>  (955) 
1

>  <reference_id>  (955) 
63

>  <inspiration_ids>  (955) 
[63, 45]

>  <energy_score>  (955) 
-34.65970834980294

>  <distance_score>  (955) 
14.715533998449786

>  <path>  (955) 
/opt/xchem-fragalysis-2/maxwin/BulkDock/SCRATCH/511017/C36285-P63/C36285-P63.minimised.mol

>  <scratch_subdir>  (955) 
/opt/xchem-fragalysis-2/maxwin/BulkDock/SCRATCH/511017/C36285-P63

>  <fragmenstein_runtime>  (955) 
21.21312189102173

>  <fragmenstein_outcome>  (955) 
too moved

>  <fragmenstein_mode>  (955) 
expansion

>  <fragmenstein_error>  (955) 


$$$$
C36285-P45
     RDKit          3D

 34 36  0  0  0  0  0  0  0  0999 V2000
   -2.1923  -14.5784   16.5510 C   0  0  0  0  0  0  0  0  0  0  0  0
   -1.6008  -14.1301   17.8365 N   0  0  0  0  0  0  0  0  0  0  0  0
   -1.8761  -12.7954   18.3187 C   0  0  0  0  0  0  0  0  0  0  0  0
   -2.1113  -12.7292   19.6247 N   0  0  0  0  0  0  0  0  0  0  0  0
   -2.0317  -14.0821   20.1043 C   0  0  0  0  0  0  0  0  0  0  0  0
   -1.5798  -15.1572   19.1716 C   0  0  0  0  0  0  0  0  0  0  0  0
   -2.4400  -17.1224   19.1257 S   0  0  0  0  0  0  0  0  0  0  0  0
   -1.1387  -18.1259   19.8064 C   0  0  0  0  0  0  0  0  0  0  0  0
   -2.5995  -17.4562   17.7280 O   0  0  0  0  0  0  0  0  0  0  0  0
   -3.6660  -17.1146   20.0718 N   0  0  0  0  0  0  0  0  0  0  0  0
   -4.6005  -18.2126   20.0040 C   0  0  0  0  0  0  0  0  0  0  0  0
   -5.3541  -18.3797   19.0512 O   0  0  0  0  0  0  0  0  0  0  0  0
   -4.6780  -19.1637   21.1783 C   0  0  0  0  0  0  0  0  0  0  0  0
   -3.6963  -18.9006   22.2137 C   0  0  0  0  0  0  0  0  0  0  0  0
   -3.8192  -19.4216   23.4177 C   0  0  0  0  0  0  0  0  0  0  0  0
   -4.7854  -20.3698   23.5920 N   0  0  0  0  0  0  0  0  0  0  0  0
   -4.8667  -21.2580   24.7632 C   0  0  0  0  0  0  0  0  0  0  0  0
   -5.4518  -22.7693   24.2042 C   0  0  0  0  0  0  0  0  0  0  0  0
   -5.9928  -22.2809   22.7444 N   0  0  0  0  0  0  0  0  0  0  0  0
   -5.6054  -20.9682   22.4826 C   0  0  0  0  0  0  0  0  0  0  0  0
   -5.5918  -20.1666   21.2907 C   0  0  0  0  0  0  0  0  0  0  0  0
   -1.4213  -14.8012   15.8203 H   0  0  0  0  0  0  0  0  0  0  0  0
   -2.8635  -13.7994   16.1898 H   0  0  0  0  0  0  0  0  0  0  0  0
   -2.8041  -15.4630   16.6894 H   0  0  0  0  0  0  0  0  0  0  0  0
   -2.0700  -11.9585   17.6851 H   0  0  0  0  0  0  0  0  0  0  0  0
   -2.4860  -14.2797   21.0099 H   0  0  0  0  0  0  0  0  0  0  0  0
   -1.5678  -19.0714   20.1431 H   0  0  0  0  0  0  0  0  0  0  0  0
   -0.6622  -17.6066   20.6341 H   0  0  0  0  0  0  0  0  0  0  0  0
   -0.4075  -18.3545   19.0306 H   0  0  0  0  0  0  0  0  0  0  0  0
   -2.8396  -18.2867   22.0101 H   0  0  0  0  0  0  0  0  0  0  0  0
   -3.0866  -19.2608   24.1926 H   0  0  0  0  0  0  0  0  0  0  0  0
   -4.6742  -20.8814   25.7403 H   0  0  0  0  0  0  0  0  0  0  0  0
   -5.7581  -23.6461   24.7518 H   0  0  0  0  0  0  0  0  0  0  0  0
   -6.3067  -20.3893   20.5057 H   0  0  0  0  0  0  0  0  0  0  0  0
  1  2  1  0
  2  3  1  0
  3  4  2  0
  4  5  1  0
  5  6  2  0
  6  7  1  0
  7  8  1  0
  7  9  2  0
  7 10  2  0
 10 11  1  0
 11 12  2  0
 11 13  1  0
 13 14  1  0
 14 15  2  0
 15 16  1  0
 16 17  1  0
 17 18  2  0
 18 19  1  0
 19 20  2  0
 20 21  1  0
  6  2  1  0
 21 13  2  0
 20 16  1  0
  1 22  1  0
  1 23  1  0
  1 24  1  0
  3 25  1  0
  5 26  1  0
  8 27  1  0
  8 28  1  0
  8 29  1  0
 14 30  1  0
 15 31  1  0
 17 32  1  0
 18 33  1  0
 21 34  1  0
M  END
>  <Energy>  (956) 
142.88890086311289

>  <compound_id>  (956) 
36285

>  <target_id>  (956) 
1

>  <reference_id>  (956) 
45

>  <inspiration_ids>  (956) 
[63, 45]

>  <energy_score>  (956) 
121.52592188586164

>  <distance_score>  (956) 
13.587726292267943

>  <path>  (956) 
/opt/xchem-fragalysis-2/maxwin/BulkDock/SCRATCH/511017/C36285-P45/C36285-P45.minimised.mol

>  <scratch_subdir>  (956) 
/opt/xchem-fragalysis-2/maxwin/BulkDock/SCRATCH/511017/C36285-P45

>  <fragmenstein_runtime>  (956) 
22.27777600288391

>  <fragmenstein_outcome>  (956) 
too moved

>  <fragmenstein_mode>  (956) 
expansion

>  <fragmenstein_error>  (956) 


$$$$
C33145-P63
     RDKit          3D

 39 42  0  0  0  0  0  0  0  0999 V2000
    0.9574  -16.7161   20.3963 O   0  0  0  0  0  0  0  0  0  0  0  0
    0.6167  -15.9607   19.5605 C   0  0  0  0  0  0  0  0  0  0  0  0
   -1.3492  -15.9512   19.4706 C   0  0  0  0  0  0  0  0  0  0  0  0
   -1.7360  -17.2903   20.0217 C   0  0  0  0  0  0  0  0  0  0  0  0
   -2.9527  -17.8449   20.0543 C   0  0  0  0  0  0  0  0  0  0  0  0
   -3.9967  -17.0198   19.7598 N   0  0  0  0  0  0  0  0  0  0  0  0
   -5.3353  -17.2455   19.9296 C   0  0  0  0  0  0  0  0  0  0  0  0
   -5.9256  -16.0393   19.6537 C   0  0  0  0  0  0  0  0  0  0  0  0
   -4.9873  -15.0981   19.2869 N   0  0  0  0  0  0  0  0  0  0  0  0
   -3.8123  -15.6994   19.3613 C   0  0  0  0  0  0  0  0  0  0  0  0
   -2.4497  -15.2099   19.1377 C   0  0  0  0  0  0  0  0  0  0  0  0
    1.6817  -14.6951   18.4565 N   0  0  0  0  0  0  0  0  0  0  0  0
    2.2543  -14.8692   17.2619 C   0  0  0  0  0  0  0  0  0  0  0  0
    2.8106  -16.0299   16.5970 C   0  0  0  0  0  0  0  0  0  0  0  0
    4.3953  -15.7090   16.6522 C   0  0  0  0  0  0  0  0  0  0  0  0
    4.3902  -15.2477   18.0758 C   0  0  0  0  0  0  0  0  0  0  0  0
    3.3634  -14.3379   18.6084 C   0  0  0  0  0  0  0  0  0  0  0  0
    4.4405  -13.0121   19.5895 C   0  0  0  0  0  0  0  0  0  0  0  0
    4.4232  -12.5630   20.8571 N   0  0  0  0  0  0  0  0  0  0  0  0
    5.4098  -11.4724   21.0548 C   0  0  0  0  0  0  0  0  0  0  0  0
    6.3650  -11.5666   20.1571 C   0  0  0  0  0  0  0  0  0  0  0  0
    5.6430  -12.3204   19.2630 N   0  0  0  0  0  0  0  0  0  0  0  0
   -0.9690  -17.7119   20.6440 H   0  0  0  0  0  0  0  0  0  0  0  0
   -3.1647  -18.8037   20.5042 H   0  0  0  0  0  0  0  0  0  0  0  0
   -5.7300  -18.1972   20.2518 H   0  0  0  0  0  0  0  0  0  0  0  0
   -6.9780  -15.7903   19.6896 H   0  0  0  0  0  0  0  0  0  0  0  0
   -2.3744  -14.2192   18.7125 H   0  0  0  0  0  0  0  0  0  0  0  0
    1.4518  -14.7919   16.5229 H   0  0  0  0  0  0  0  0  0  0  0  0
    1.7695  -13.8722   17.1165 H   0  0  0  0  0  0  0  0  0  0  0  0
    2.3316  -16.9540   17.0349 H   0  0  0  0  0  0  0  0  0  0  0  0
    2.9339  -16.5599   15.6921 H   0  0  0  0  0  0  0  0  0  0  0  0
    4.9031  -15.8982   15.6935 H   0  0  0  0  0  0  0  0  0  0  0  0
    5.1029  -16.5898   16.5743 H   0  0  0  0  0  0  0  0  0  0  0  0
    5.0717  -14.5030   18.1435 H   0  0  0  0  0  0  0  0  0  0  0  0
    4.7240  -15.9927   18.7695 H   0  0  0  0  0  0  0  0  0  0  0  0
    2.8862  -14.5317   19.5712 H   0  0  0  0  0  0  0  0  0  0  0  0
    5.3359  -10.7785   21.8958 H   0  0  0  0  0  0  0  0  0  0  0  0
    7.2295  -10.9562   19.9397 H   0  0  0  0  0  0  0  0  0  0  0  0
    5.6240  -11.8111   18.4375 H   0  0  0  0  0  0  0  0  0  0  0  0
  1  2  2  0
  2  3  1  0
  3  4  1  0
  4  5  2  0
  5  6  1  0
  6  7  1  0
  7  8  2  0
  8  9  1  0
  9 10  2  0
 10 11  1  0
  2 12  1  0
 12 13  1  0
 13 14  1  0
 14 15  1  0
 15 16  1  0
 16 17  1  0
 17 18  1  0
 18 19  2  0
 19 20  1  0
 20 21  2  0
 21 22  1  0
 11  3  2  0
 17 12  1  0
 22 18  1  0
 10  6  1  0
  4 23  1  0
  5 24  1  0
  7 25  1  0
  8 26  1  0
 11 27  1  0
 13 28  1  0
 13 29  1  0
 14 30  1  0
 14 31  1  0
 15 32  1  0
 15 33  1  0
 16 34  1  0
 16 35  1  0
 17 36  1  0
 20 37  1  0
 21 38  1  0
 22 39  1  0
M  END
>  <Energy>  (957) 
685.36465567927041

>  <compound_id>  (957) 
33145

>  <target_id>  (957) 
1

>  <reference_id>  (957) 
63

>  <inspiration_ids>  (957) 
[63, 45]

>  <energy_score>  (957) 
607.0962527303097

>  <distance_score>  (957) 
13.796812395148194

>  <path>  (957) 
/opt/xchem-fragalysis-2/maxwin/BulkDock/SCRATCH/511017/C33145-P63/C33145-P63.minimised.mol

>  <scratch_subdir>  (957) 
/opt/xchem-fragalysis-2/maxwin/BulkDock/SCRATCH/511017/C33145-P63

>  <fragmenstein_runtime>  (957) 
20.84671640396118

>  <fragmenstein_outcome>  (957) 
too moved

>  <fragmenstein_mode>  (957) 
expansion

>  <fragmenstein_error>  (957) 


$$$$
C33145-P45
     RDKit          3D

 39 42  0  0  0  0  0  0  0  0999 V2000
   -1.3189  -22.1199   21.1024 O   0  0  0  0  0  0  0  0  0  0  0  0
   -1.1489  -22.4711   22.3960 C   0  0  0  0  0  0  0  0  0  0  0  0
   -2.7870  -24.3080   22.8159 C   0  0  0  0  0  0  0  0  0  0  0  0
   -1.9529  -26.0169   22.2396 C   0  0  0  0  0  0  0  0  0  0  0  0
   -1.5081  -27.0282   23.2240 C   0  0  0  0  0  0  0  0  0  0  0  0
   -2.2590  -26.9376   24.6641 N   0  0  0  0  0  0  0  0  0  0  0  0
   -3.5829  -27.6391   25.3368 C   0  0  0  0  0  0  0  0  0  0  0  0
   -4.1286  -26.7946   26.2694 C   0  0  0  0  0  0  0  0  0  0  0  0
   -3.5462  -25.6096   26.0539 N   0  0  0  0  0  0  0  0  0  0  0  0
   -2.7961  -25.7475   24.9608 C   0  0  0  0  0  0  0  0  0  0  0  0
   -2.9645  -25.3580   23.5784 C   0  0  0  0  0  0  0  0  0  0  0  0
    0.5635  -21.4855   23.0638 N   0  0  0  0  0  0  0  0  0  0  0  0
    0.6542  -19.7775   23.8568 C   0  0  0  0  0  0  0  0  0  0  0  0
    2.5256  -19.1684   24.5709 C   0  0  0  0  0  0  0  0  0  0  0  0
    3.3113  -18.6111   23.4205 C   0  0  0  0  0  0  0  0  0  0  0  0
    2.3116  -19.0206   21.6125 C   0  0  0  0  0  0  0  0  0  0  0  0
    2.1077  -20.2510   22.0911 C   0  0  0  0  0  0  0  0  0  0  0  0
    4.1450  -19.3813   21.7826 C   0  0  0  0  0  0  0  0  0  0  0  0
    5.4527  -18.3519   22.0312 N   0  0  0  0  0  0  0  0  0  0  0  0
    6.8486  -18.8075   21.0177 C   0  0  0  0  0  0  0  0  0  0  0  0
    6.4409  -18.0985   20.0683 C   0  0  0  0  0  0  0  0  0  0  0  0
    5.2099  -18.1952   20.8335 N   0  0  0  0  0  0  0  0  0  0  0  0
   -1.7546  -26.0790   21.1650 H   0  0  0  0  0  0  0  0  0  0  0  0
   -1.0515  -27.9732   22.9730 H   0  0  0  0  0  0  0  0  0  0  0  0
   -3.8305  -28.5763   24.9718 H   0  0  0  0  0  0  0  0  0  0  0  0
   -4.9323  -26.9587   26.9680 H   0  0  0  0  0  0  0  0  0  0  0  0
   -3.6616  -25.5308   22.6591 H   0  0  0  0  0  0  0  0  0  0  0  0
    0.6708  -19.1559   24.7916 H   0  0  0  0  0  0  0  0  0  0  0  0
   -0.0643  -19.2179   23.2577 H   0  0  0  0  0  0  0  0  0  0  0  0
    2.5132  -18.4528   25.3973 H   0  0  0  0  0  0  0  0  0  0  0  0
    3.3061  -19.9184   24.8051 H   0  0  0  0  0  0  0  0  0  0  0  0
    3.7204  -17.5618   23.2768 H   0  0  0  0  0  0  0  0  0  0  0  0
    3.1081  -17.7345   24.0679 H   0  0  0  0  0  0  0  0  0  0  0  0
    1.2329  -18.6588   21.4334 H   0  0  0  0  0  0  0  0  0  0  0  0
    2.7343  -19.3655   20.6477 H   0  0  0  0  0  0  0  0  0  0  0  0
    1.9656  -20.6487   21.0492 H   0  0  0  0  0  0  0  0  0  0  0  0
    7.7912  -19.1340   21.4284 H   0  0  0  0  0  0  0  0  0  0  0  0
    6.6680  -17.4526   19.2597 H   0  0  0  0  0  0  0  0  0  0  0  0
    4.7675  -17.5046   20.3700 H   0  0  0  0  0  0  0  0  0  0  0  0
  1  2  2  0
  2  3  1  0
  3  4  1  0
  4  5  2  0
  5  6  1  0
  6  7  1  0
  7  8  2  0
  8  9  1  0
  9 10  2  0
 10 11  1  0
  2 12  1  0
 12 13  1  0
 13 14  1  0
 14 15  1  0
 15 16  1  0
 16 17  1  0
 17 18  1  0
 18 19  2  0
 19 20  1  0
 20 21  2  0
 21 22  1  0
 11  3  2  0
 17 12  1  0
 22 18  1  0
 10  6  1  0
  4 23  1  0
  5 24  1  0
  7 25  1  0
  8 26  1  0
 11 27  1  0
 13 28  1  0
 13 29  1  0
 14 30  1  0
 14 31  1  0
 15 32  1  0
 15 33  1  0
 16 34  1  0
 16 35  1  0
 17 36  1  0
 20 37  1  0
 21 38  1  0
 22 39  1  0
M  END
>  <Energy>  (958) 
2645.6632709845194

>  <compound_id>  (958) 
33145

>  <target_id>  (958) 
1

>  <reference_id>  (958) 
45

>  <inspiration_ids>  (958) 
[63, 45]

>  <energy_score>  (958) 
2567.394868035595

>  <distance_score>  (958) 
12.483044147196392

>  <path>  (958) 
/opt/xchem-fragalysis-2/maxwin/BulkDock/SCRATCH/511017/C33145-P45/C33145-P45.minimised.mol

>  <scratch_subdir>  (958) 
/opt/xchem-fragalysis-2/maxwin/BulkDock/SCRATCH/511017/C33145-P45

>  <fragmenstein_runtime>  (958) 
24.01569890975952

>  <fragmenstein_outcome>  (958) 
too moved

>  <fragmenstein_mode>  (958) 
expansion

>  <fragmenstein_error>  (958) 


$$$$
C36286-P63
     RDKit          3D

 42 44  0  0  0  0  0  0  0  0999 V2000
    8.3286  -10.5917   26.2945 C   0  0  0  0  0  0  0  0  0  0  0  0
    7.3556   -9.5315   26.6559 C   0  0  0  0  0  0  0  0  0  0  0  0
    7.3109   -8.3228   26.0029 N   0  0  0  0  0  0  0  0  0  0  0  0
    6.3207   -7.5874   26.5805 C   0  0  0  0  0  0  0  0  0  0  0  0
    5.6796   -8.2744   27.5097 N   0  0  0  0  0  0  0  0  0  0  0  0
    6.3234   -9.5092   27.6035 C   0  0  0  0  0  0  0  0  0  0  0  0
    5.9444  -10.6483   28.5417 C   0  0  0  0  0  0  0  0  0  0  0  0
    6.7768  -11.4914   28.7000 O   0  0  0  0  0  0  0  0  0  0  0  0
    4.6018  -10.5317   29.0832 N   0  0  0  0  0  0  0  0  0  0  0  0
    3.8645  -11.3787   30.0932 C   0  0  0  0  0  0  0  0  0  0  0  0
    4.7507  -12.3392   30.8674 C   0  0  0  0  0  0  0  0  0  0  0  0
    2.4910  -12.0542   29.6626 C   0  0  0  0  0  0  0  0  0  0  0  0
    2.3018  -13.5235   29.5696 N   0  0  0  0  0  0  0  0  0  0  0  0
    1.7501  -14.4729   30.5182 C   0  0  0  0  0  0  0  0  0  0  0  0
    1.3807  -14.3215   31.6502 O   0  0  0  0  0  0  0  0  0  0  0  0
    1.4944  -15.9126   29.9465 C   0  0  0  0  0  0  0  0  0  0  0  0
    2.3659  -16.6073   28.9901 C   0  0  0  0  0  0  0  0  0  0  0  0
    2.1167  -17.8883   28.6411 C   0  0  0  0  0  0  0  0  0  0  0  0
    1.0444  -18.5637   29.2091 N   0  0  0  0  0  0  0  0  0  0  0  0
    0.6408  -19.8624   29.0522 C   0  0  0  0  0  0  0  0  0  0  0  0
   -0.4713  -19.9962   29.8428 C   0  0  0  0  0  0  0  0  0  0  0  0
   -0.7158  -18.8408   30.5452 N   0  0  0  0  0  0  0  0  0  0  0  0
    0.1865  -17.9755   30.1257 C   0  0  0  0  0  0  0  0  0  0  0  0
    0.4427  -16.6071   30.4749 C   0  0  0  0  0  0  0  0  0  0  0  0
    8.9384  -10.2999   25.4332 H   0  0  0  0  0  0  0  0  0  0  0  0
    7.8068  -11.5187   26.0353 H   0  0  0  0  0  0  0  0  0  0  0  0
    9.0035  -10.7934   27.1321 H   0  0  0  0  0  0  0  0  0  0  0  0
    7.8894   -8.0362   25.2245 H   0  0  0  0  0  0  0  0  0  0  0  0
    6.0932   -6.5764   26.2686 H   0  0  0  0  0  0  0  0  0  0  0  0
    4.2069   -9.6384   28.8006 H   0  0  0  0  0  0  0  0  0  0  0  0
    3.5668  -10.6032   30.8135 H   0  0  0  0  0  0  0  0  0  0  0  0
    5.0102  -13.1950   30.2490 H   0  0  0  0  0  0  0  0  0  0  0  0
    5.6731  -11.8569   31.2053 H   0  0  0  0  0  0  0  0  0  0  0  0
    4.2298  -12.7183   31.7532 H   0  0  0  0  0  0  0  0  0  0  0  0
    1.7724  -11.7604   30.4404 H   0  0  0  0  0  0  0  0  0  0  0  0
    2.1020  -11.6118   28.7433 H   0  0  0  0  0  0  0  0  0  0  0  0
    2.5806  -14.0188   28.7302 H   0  0  0  0  0  0  0  0  0  0  0  0
    3.2329  -16.0890   28.5970 H   0  0  0  0  0  0  0  0  0  0  0  0
    2.7355  -18.4433   27.9483 H   0  0  0  0  0  0  0  0  0  0  0  0
    1.1527  -20.5592   28.4058 H   0  0  0  0  0  0  0  0  0  0  0  0
   -1.1035  -20.8657   29.9413 H   0  0  0  0  0  0  0  0  0  0  0  0
   -0.2118  -16.1612   31.2176 H   0  0  0  0  0  0  0  0  0  0  0  0
  1  2  1  0
  2  3  1  0
  3  4  1  0
  4  5  2  0
  5  6  1  0
  6  7  1  0
  7  8  2  0
  7  9  1  0
  9 10  1  0
 10 11  1  0
 10 12  1  0
 12 13  1  0
 13 14  1  0
 14 15  2  0
 14 16  1  0
 16 17  1  0
 17 18  2  0
 18 19  1  0
 19 20  1  0
 20 21  2  0
 21 22  1  0
 22 23  2  0
 23 24  1  0
  6  2  2  0
 24 16  2  0
 23 19  1  0
  1 25  1  0
  1 26  1  0
  1 27  1  0
  3 28  1  0
  4 29  1  0
  9 30  1  0
 10 31  1  0
 11 32  1  0
 11 33  1  0
 11 34  1  0
 12 35  1  0
 12 36  1  0
 13 37  1  0
 17 38  1  0
 18 39  1  0
 20 40  1  0
 21 41  1  0
 24 42  1  0
M  END
>  <Energy>  (959) 
66.664148489098977

>  <compound_id>  (959) 
36286

>  <target_id>  (959) 
1

>  <reference_id>  (959) 
63

>  <inspiration_ids>  (959) 
[63, 45]

>  <energy_score>  (959) 
-5.747608883058774

>  <distance_score>  (959) 
14.000022019824346

>  <path>  (959) 
/opt/xchem-fragalysis-2/maxwin/BulkDock/SCRATCH/511017/C36286-P63/C36286-P63.minimised.mol

>  <scratch_subdir>  (959) 
/opt/xchem-fragalysis-2/maxwin/BulkDock/SCRATCH/511017/C36286-P63

>  <fragmenstein_runtime>  (959) 
54.46689414978027

>  <fragmenstein_outcome>  (959) 
too moved

>  <fragmenstein_mode>  (959) 
expansion

>  <fragmenstein_error>  (959) 


$$$$
C36286-P45
     RDKit          3D

 42 44  0  0  0  0  0  0  0  0999 V2000
    7.4193   -6.5682   20.8029 C   0  0  0  0  0  0  0  0  0  0  0  0
    6.7103   -7.8645   20.1624 C   0  0  0  0  0  0  0  0  0  0  0  0
    5.6520   -7.3455   19.1223 N   0  0  0  0  0  0  0  0  0  0  0  0
    4.8822   -8.5865   18.6098 C   0  0  0  0  0  0  0  0  0  0  0  0
    5.6015   -9.8508   18.9085 N   0  0  0  0  0  0  0  0  0  0  0  0
    6.9742   -9.9754   20.0225 C   0  0  0  0  0  0  0  0  0  0  0  0
    5.7933  -11.4064   20.8506 C   0  0  0  0  0  0  0  0  0  0  0  0
    5.9144  -12.4313   20.2375 O   0  0  0  0  0  0  0  0  0  0  0  0
    4.5050  -11.3099   22.2558 N   0  0  0  0  0  0  0  0  0  0  0  0
    3.3012  -12.7054   23.0706 C   0  0  0  0  0  0  0  0  0  0  0  0
    3.7934  -14.2457   24.0115 C   0  0  0  0  0  0  0  0  0  0  0  0
    1.6505  -13.2672   24.1941 C   0  0  0  0  0  0  0  0  0  0  0  0
   -0.1925  -14.0689   24.3802 N   0  0  0  0  0  0  0  0  0  0  0  0
   -1.4521  -13.7907   25.6491 C   0  0  0  0  0  0  0  0  0  0  0  0
   -1.3588  -13.0391   26.6103 O   0  0  0  0  0  0  0  0  0  0  0  0
   -2.8205  -14.6222   25.7444 C   0  0  0  0  0  0  0  0  0  0  0  0
   -3.7341  -15.2244   24.8102 C   0  0  0  0  0  0  0  0  0  0  0  0
   -5.0196  -15.4655   25.1463 C   0  0  0  0  0  0  0  0  0  0  0  0
   -5.3795  -15.3755   26.4901 N   0  0  0  0  0  0  0  0  0  0  0  0
   -6.5870  -15.4490   27.1333 C   0  0  0  0  0  0  0  0  0  0  0  0
   -6.2810  -15.6389   28.4614 C   0  0  0  0  0  0  0  0  0  0  0  0
   -4.9337  -15.5088   28.6697 N   0  0  0  0  0  0  0  0  0  0  0  0
   -4.4318  -15.2396   27.4830 C   0  0  0  0  0  0  0  0  0  0  0  0
   -3.1521  -14.7843   27.0671 C   0  0  0  0  0  0  0  0  0  0  0  0
    7.2051   -6.4857   21.8734 H   0  0  0  0  0  0  0  0  0  0  0  0
    6.9916   -5.6687   20.3481 H   0  0  0  0  0  0  0  0  0  0  0  0
    8.4966   -6.5517   20.6128 H   0  0  0  0  0  0  0  0  0  0  0  0
    5.3593   -6.3789   19.0077 H   0  0  0  0  0  0  0  0  0  0  0  0
    3.8505   -8.5326   18.2661 H   0  0  0  0  0  0  0  0  0  0  0  0
    4.5963  -10.4335   22.7090 H   0  0  0  0  0  0  0  0  0  0  0  0
    3.3526  -13.1085   22.0603 H   0  0  0  0  0  0  0  0  0  0  0  0
    4.6947  -14.8835   24.0197 H   0  0  0  0  0  0  0  0  0  0  0  0
    3.7681  -14.0625   25.0784 H   0  0  0  0  0  0  0  0  0  0  0  0
    3.2497  -15.0050   23.4798 H   0  0  0  0  0  0  0  0  0  0  0  0
    1.8650  -13.1040   25.2500 H   0  0  0  0  0  0  0  0  0  0  0  0
    1.6737  -14.2506   23.6731 H   0  0  0  0  0  0  0  0  0  0  0  0
   -0.5612  -14.6509   23.6787 H   0  0  0  0  0  0  0  0  0  0  0  0
   -3.3303  -15.4697   23.8592 H   0  0  0  0  0  0  0  0  0  0  0  0
   -5.7744  -15.8288   24.4595 H   0  0  0  0  0  0  0  0  0  0  0  0
   -7.5226  -15.4555   26.5952 H   0  0  0  0  0  0  0  0  0  0  0  0
   -6.9601  -15.8329   29.2811 H   0  0  0  0  0  0  0  0  0  0  0  0
   -2.5090  -14.4497   27.8772 H   0  0  0  0  0  0  0  0  0  0  0  0
  1  2  1  0
  2  3  1  0
  3  4  1  0
  4  5  2  0
  5  6  1  0
  6  7  1  0
  7  8  2  0
  7  9  1  0
  9 10  1  0
 10 11  1  0
 10 12  1  0
 12 13  1  0
 13 14  1  0
 14 15  2  0
 14 16  1  0
 16 17  1  0
 17 18  2  0
 18 19  1  0
 19 20  1  0
 20 21  2  0
 21 22  1  0
 22 23  2  0
 23 24  1  0
  6  2  2  0
 24 16  2  0
 23 19  1  0
  1 25  1  0
  1 26  1  0
  1 27  1  0
  3 28  1  0
  4 29  1  0
  9 30  1  0
 10 31  1  0
 11 32  1  0
 11 33  1  0
 11 34  1  0
 12 35  1  0
 12 36  1  0
 13 37  1  0
 17 38  1  0
 18 39  1  0
 20 40  1  0
 21 41  1  0
 24 42  1  0
M  END
>  <Energy>  (960) 
1124.1800845240216

>  <compound_id>  (960) 
36286

>  <target_id>  (960) 
1

>  <reference_id>  (960) 
45

>  <inspiration_ids>  (960) 
[63, 45]

>  <energy_score>  (960) 
1051.7683271518727

>  <distance_score>  (960) 
12.086399225456846

>  <path>  (960) 
/opt/xchem-fragalysis-2/maxwin/BulkDock/SCRATCH/511017/C36286-P45/C36286-P45.minimised.mol

>  <scratch_subdir>  (960) 
/opt/xchem-fragalysis-2/maxwin/BulkDock/SCRATCH/511017/C36286-P45

>  <fragmenstein_runtime>  (960) 
39.47634267807007

>  <fragmenstein_outcome>  (960) 
too moved

>  <fragmenstein_mode>  (960) 
expansion

>  <fragmenstein_error>  (960) 


$$$$
C36287-P63
     RDKit          3D

 39 42  0  0  0  0  0  0  0  0999 V2000
    0.4649  -18.8085   21.8466 O   0  0  0  0  0  0  0  0  0  0  0  0
   -0.5807  -18.3469   21.8958 C   0  0  0  0  0  0  0  0  0  0  0  0
   -1.9363  -19.7168   22.9189 C   0  0  0  0  0  0  0  0  0  0  0  0
   -3.6892  -20.0737   23.6871 C   0  0  0  0  0  0  0  0  0  0  0  0
   -5.1301  -20.6155   23.2764 C   0  0  0  0  0  0  0  0  0  0  0  0
   -5.2092  -21.6023   24.3047 N   0  0  0  0  0  0  0  0  0  0  0  0
   -5.6754  -23.2180   24.7665 C   0  0  0  0  0  0  0  0  0  0  0  0
   -5.7689  -22.8202   26.2047 C   0  0  0  0  0  0  0  0  0  0  0  0
   -4.8502  -21.4127   26.2994 N   0  0  0  0  0  0  0  0  0  0  0  0
   -4.2839  -21.1145   25.0613 C   0  0  0  0  0  0  0  0  0  0  0  0
   -2.6062  -20.7925   23.9889 C   0  0  0  0  0  0  0  0  0  0  0  0
   -0.4811  -16.7670   21.3025 N   0  0  0  0  0  0  0  0  0  0  0  0
    0.5757  -15.9679   20.9004 C   0  0  0  0  0  0  0  0  0  0  0  0
    2.0990  -14.8413   20.3882 C   0  0  0  0  0  0  0  0  0  0  0  0
    2.7376  -14.7828   18.8644 C   0  0  0  0  0  0  0  0  0  0  0  0
    4.1560  -13.4635   19.2438 C   0  0  0  0  0  0  0  0  0  0  0  0
    4.4006  -12.7245   20.4325 C   0  0  0  0  0  0  0  0  0  0  0  0
    5.5675  -11.9988   20.3825 N   0  0  0  0  0  0  0  0  0  0  0  0
    6.3610  -12.8207   19.7519 C   0  0  0  0  0  0  0  0  0  0  0  0
    5.5973  -13.7408   19.1739 N   0  0  0  0  0  0  0  0  0  0  0  0
    1.1122  -15.9459   18.9886 C   0  0  0  0  0  0  0  0  0  0  0  0
   -0.6718  -16.5297   19.9161 C   0  0  0  0  0  0  0  0  0  0  0  0
   -4.2133  -19.2977   24.3801 H   0  0  0  0  0  0  0  0  0  0  0  0
   -5.5252  -20.9420   22.3081 H   0  0  0  0  0  0  0  0  0  0  0  0
   -6.1243  -23.8329   23.9957 H   0  0  0  0  0  0  0  0  0  0  0  0
   -6.2471  -23.0541   27.1368 H   0  0  0  0  0  0  0  0  0  0  0  0
   -1.7410  -21.4266   24.1531 H   0  0  0  0  0  0  0  0  0  0  0  0
    1.0502  -16.8937   20.8254 H   0  0  0  0  0  0  0  0  0  0  0  0
    0.4858  -15.4251   21.8303 H   0  0  0  0  0  0  0  0  0  0  0  0
    2.6687  -15.5353   20.6373 H   0  0  0  0  0  0  0  0  0  0  0  0
    2.7057  -14.2495   21.0329 H   0  0  0  0  0  0  0  0  0  0  0  0
    2.3507  -14.0919   18.1269 H   0  0  0  0  0  0  0  0  0  0  0  0
    3.8143  -12.6691   21.3286 H   0  0  0  0  0  0  0  0  0  0  0  0
    5.8565  -11.2582   20.9989 H   0  0  0  0  0  0  0  0  0  0  0  0
    7.4346  -12.7709   19.8473 H   0  0  0  0  0  0  0  0  0  0  0  0
    0.9508  -14.9136   18.2162 H   0  0  0  0  0  0  0  0  0  0  0  0
    1.3605  -17.0049   18.4908 H   0  0  0  0  0  0  0  0  0  0  0  0
   -1.4600  -15.7745   19.7079 H   0  0  0  0  0  0  0  0  0  0  0  0
   -1.0829  -17.4489   19.4693 H   0  0  0  0  0  0  0  0  0  0  0  0
  1  2  2  0
  2  3  1  0
  3  4  1  0
  4  5  2  0
  5  6  1  0
  6  7  1  0
  7  8  2  0
  8  9  1  0
  9 10  2  0
 10 11  1  0
  2 12  1  0
 12 13  1  0
 13 14  1  0
 14 15  1  0
 15 16  1  0
 16 17  2  0
 17 18  1  0
 18 19  1  0
 19 20  2  0
 15 21  1  0
 21 22  1  0
 11  3  2  0
 22 12  1  0
 10  6  1  0
 20 16  1  0
  4 23  1  0
  5 24  1  0
  7 25  1  0
  8 26  1  0
 11 27  1  0
 13 28  1  0
 13 29  1  0
 14 30  1  0
 14 31  1  0
 15 32  1  0
 17 33  1  0
 18 34  1  0
 19 35  1  0
 21 36  1  0
 21 37  1  0
 22 38  1  0
 22 39  1  0
M  END
>  <Energy>  (961) 
1743.8229329000271

>  <compound_id>  (961) 
36287

>  <target_id>  (961) 
1

>  <reference_id>  (961) 
63

>  <inspiration_ids>  (961) 
[63, 45]

>  <energy_score>  (961) 
1699.5531294033324

>  <distance_score>  (961) 
11.534600546827887

>  <path>  (961) 
/opt/xchem-fragalysis-2/maxwin/BulkDock/SCRATCH/511017/C36287-P63/C36287-P63.minimised.mol

>  <scratch_subdir>  (961) 
/opt/xchem-fragalysis-2/maxwin/BulkDock/SCRATCH/511017/C36287-P63

>  <fragmenstein_runtime>  (961) 
24.383960485458374

>  <fragmenstein_outcome>  (961) 
too moved

>  <fragmenstein_mode>  (961) 
expansion

>  <fragmenstein_error>  (961) 


$$$$
C36287-P45
     RDKit          3D

 39 42  0  0  0  0  0  0  0  0999 V2000
    9.0360  -23.2502   19.1148 O   0  0  0  0  0  0  0  0  0  0  0  0
    8.3542  -22.2799   19.3595 C   0  0  0  0  0  0  0  0  0  0  0  0
    6.8551  -22.7350   19.6928 C   0  0  0  0  0  0  0  0  0  0  0  0
    6.7690  -23.5577   20.9471 C   0  0  0  0  0  0  0  0  0  0  0  0
    5.7062  -24.3354   21.2314 C   0  0  0  0  0  0  0  0  0  0  0  0
    4.6147  -24.3237   20.3786 N   0  0  0  0  0  0  0  0  0  0  0  0
    3.4319  -25.0291   20.4432 C   0  0  0  0  0  0  0  0  0  0  0  0
    2.6434  -24.4976   19.4511 C   0  0  0  0  0  0  0  0  0  0  0  0
    3.3447  -23.5656   18.7202 N   0  0  0  0  0  0  0  0  0  0  0  0
    4.5500  -23.4995   19.2619 C   0  0  0  0  0  0  0  0  0  0  0  0
    5.7617  -22.7902   18.8815 C   0  0  0  0  0  0  0  0  0  0  0  0
    8.7271  -20.8631   19.4872 N   0  0  0  0  0  0  0  0  0  0  0  0
   10.0939  -20.1937   19.4651 C   0  0  0  0  0  0  0  0  0  0  0  0
   10.3109  -18.6667   19.6430 C   0  0  0  0  0  0  0  0  0  0  0  0
   10.0099  -17.9714   18.3223 C   0  0  0  0  0  0  0  0  0  0  0  0
   10.2280  -16.4488   18.2456 C   0  0  0  0  0  0  0  0  0  0  0  0
   10.5688  -15.5170   19.2125 C   0  0  0  0  0  0  0  0  0  0  0  0
   10.7809  -14.3252   18.5592 N   0  0  0  0  0  0  0  0  0  0  0  0
   10.6091  -14.5570   17.2288 C   0  0  0  0  0  0  0  0  0  0  0  0
   10.2600  -15.8077   17.0097 N   0  0  0  0  0  0  0  0  0  0  0  0
    8.6223  -18.5421   18.0053 C   0  0  0  0  0  0  0  0  0  0  0  0
    8.6087  -20.1412   18.1060 C   0  0  0  0  0  0  0  0  0  0  0  0
    7.6422  -23.5573   21.5945 H   0  0  0  0  0  0  0  0  0  0  0  0
    5.6516  -24.9632   22.1112 H   0  0  0  0  0  0  0  0  0  0  0  0
    3.2492  -25.7736   21.2031 H   0  0  0  0  0  0  0  0  0  0  0  0
    1.6195  -24.7456   19.2041 H   0  0  0  0  0  0  0  0  0  0  0  0
    5.7835  -22.3862   17.8772 H   0  0  0  0  0  0  0  0  0  0  0  0
   10.7669  -20.6388   18.7114 H   0  0  0  0  0  0  0  0  0  0  0  0
   10.5232  -20.6175   20.3875 H   0  0  0  0  0  0  0  0  0  0  0  0
    9.6813  -18.2899   20.4540 H   0  0  0  0  0  0  0  0  0  0  0  0
   11.3532  -18.4815   19.9297 H   0  0  0  0  0  0  0  0  0  0  0  0
   10.7055  -18.3787   17.5726 H   0  0  0  0  0  0  0  0  0  0  0  0
   10.7313  -15.6095   20.2756 H   0  0  0  0  0  0  0  0  0  0  0  0
   11.0783  -13.4533   18.9743 H   0  0  0  0  0  0  0  0  0  0  0  0
   10.7478  -13.7935   16.4744 H   0  0  0  0  0  0  0  0  0  0  0  0
    8.3291  -18.2601   16.9876 H   0  0  0  0  0  0  0  0  0  0  0  0
    7.8765  -18.1329   18.6963 H   0  0  0  0  0  0  0  0  0  0  0  0
    7.6541  -20.4695   17.6905 H   0  0  0  0  0  0  0  0  0  0  0  0
    9.3036  -20.5842   17.3693 H   0  0  0  0  0  0  0  0  0  0  0  0
  1  2  2  0
  2  3  1  0
  3  4  1  0
  4  5  2  0
  5  6  1  0
  6  7  1  0
  7  8  2  0
  8  9  1  0
  9 10  2  0
 10 11  1  0
  2 12  1  0
 12 13  1  0
 13 14  1  0
 14 15  1  0
 15 16  1  0
 16 17  2  0
 17 18  1  0
 18 19  1  0
 19 20  2  0
 15 21  1  0
 21 22  1  0
 11  3  2  0
 22 12  1  0
 10  6  1  0
 20 16  1  0
  4 23  1  0
  5 24  1  0
  7 25  1  0
  8 26  1  0
 11 27  1  0
 13 28  1  0
 13 29  1  0
 14 30  1  0
 14 31  1  0
 15 32  1  0
 17 33  1  0
 18 34  1  0
 19 35  1  0
 21 36  1  0
 21 37  1  0
 22 38  1  0
 22 39  1  0
M  END
>  <Energy>  (962) 
112.46759773324543

>  <compound_id>  (962) 
36287

>  <target_id>  (962) 
1

>  <reference_id>  (962) 
45

>  <inspiration_ids>  (962) 
[63, 45]

>  <energy_score>  (962) 
68.19779423655177

>  <distance_score>  (962) 
15.042906722851148

>  <path>  (962) 
/opt/xchem-fragalysis-2/maxwin/BulkDock/SCRATCH/511017/C36287-P45/C36287-P45.minimised.mol

>  <scratch_subdir>  (962) 
/opt/xchem-fragalysis-2/maxwin/BulkDock/SCRATCH/511017/C36287-P45

>  <fragmenstein_runtime>  (962) 
34.08603882789612

>  <fragmenstein_outcome>  (962) 
too moved

>  <fragmenstein_mode>  (962) 
expansion

>  <fragmenstein_error>  (962) 


$$$$
C36283-P63
     RDKit          3D

 32 34  0  0  0  0  0  0  0  0999 V2000
    0.8558  -18.1486   29.9316 C   0  0  0  0  0  0  0  0  0  0  0  0
    0.0926  -18.1039   28.7031 N   0  0  0  0  0  0  0  0  0  0  0  0
    0.0941  -17.0110   27.8661 C   0  0  0  0  0  0  0  0  0  0  0  0
   -0.8249  -17.3048   26.9017 C   0  0  0  0  0  0  0  0  0  0  0  0
   -1.3487  -18.5620   27.1015 N   0  0  0  0  0  0  0  0  0  0  0  0
   -0.8258  -19.0661   28.2274 C   0  0  0  0  0  0  0  0  0  0  0  0
   -1.1212  -20.5514   28.9180 C   0  0  0  0  0  0  0  0  0  0  0  0
    0.1964  -20.5022   29.5312 F   0  0  0  0  0  0  0  0  0  0  0  0
   -0.7275  -21.6601   28.2374 F   0  0  0  0  0  0  0  0  0  0  0  0
   -1.8281  -21.1049   30.3154 C   0  0  0  0  0  0  0  0  0  0  0  0
   -1.1998  -20.6371   31.3057 O   0  0  0  0  0  0  0  0  0  0  0  0
   -3.2611  -22.4170   30.4024 N   0  0  0  0  0  0  0  0  0  0  0  0
   -3.9173  -23.3787   31.8173 C   0  0  0  0  0  0  0  0  0  0  0  0
   -5.3932  -24.1856   31.9872 C   0  0  0  0  0  0  0  0  0  0  0  0
   -5.7335  -25.2383   32.9214 C   0  0  0  0  0  0  0  0  0  0  0  0
   -4.7955  -25.8092   33.7780 N   0  0  0  0  0  0  0  0  0  0  0  0
   -4.9205  -26.7876   34.7186 C   0  0  0  0  0  0  0  0  0  0  0  0
   -3.6662  -26.9053   35.2659 C   0  0  0  0  0  0  0  0  0  0  0  0
   -2.7943  -26.0061   34.7087 N   0  0  0  0  0  0  0  0  0  0  0  0
   -3.5015  -25.3503   33.8145 C   0  0  0  0  0  0  0  0  0  0  0  0
   -3.0835  -24.2793   32.8216 C   0  0  0  0  0  0  0  0  0  0  0  0
    1.2181  -17.1438   30.1678 H   0  0  0  0  0  0  0  0  0  0  0  0
    0.2082  -18.4839   30.7435 H   0  0  0  0  0  0  0  0  0  0  0  0
    1.7103  -18.8137   29.7877 H   0  0  0  0  0  0  0  0  0  0  0  0
    0.6982  -16.1357   28.0558 H   0  0  0  0  0  0  0  0  0  0  0  0
   -1.1625  -16.6842   26.0842 H   0  0  0  0  0  0  0  0  0  0  0  0
   -3.6257  -22.5797   29.4812 H   0  0  0  0  0  0  0  0  0  0  0  0
   -6.1754  -23.4590   31.9541 H   0  0  0  0  0  0  0  0  0  0  0  0
   -6.7736  -25.5204   33.1197 H   0  0  0  0  0  0  0  0  0  0  0  0
   -5.8481  -27.3103   34.8973 H   0  0  0  0  0  0  0  0  0  0  0  0
   -3.3440  -27.5891   36.0408 H   0  0  0  0  0  0  0  0  0  0  0  0
   -2.0700  -24.4973   32.9865 H   0  0  0  0  0  0  0  0  0  0  0  0
  1  2  1  0
  2  3  1  0
  3  4  2  0
  4  5  1  0
  5  6  2  0
  6  7  1  0
  7  8  1  0
  7  9  1  0
  7 10  1  0
 10 11  2  0
 10 12  1  0
 12 13  1  0
 13 14  1  0
 14 15  2  0
 15 16  1  0
 16 17  1  0
 17 18  2  0
 18 19  1  0
 19 20  2  0
 20 21  1  0
  6  2  1  0
 21 13  2  0
 20 16  1  0
  1 22  1  0
  1 23  1  0
  1 24  1  0
  3 25  1  0
  4 26  1  0
 12 27  1  0
 14 28  1  0
 15 29  1  0
 17 30  1  0
 18 31  1  0
 21 32  1  0
M  END
>  <Energy>  (963) 
465.2143848413541

>  <compound_id>  (963) 
36283

>  <target_id>  (963) 
1

>  <reference_id>  (963) 
63

>  <inspiration_ids>  (963) 
[63, 45]

>  <energy_score>  (963) 
334.9123094563199

>  <distance_score>  (963) 
15.63239449797211

>  <path>  (963) 
/opt/xchem-fragalysis-2/maxwin/BulkDock/SCRATCH/511017/C36283-P63/C36283-P63.minimised.mol

>  <scratch_subdir>  (963) 
/opt/xchem-fragalysis-2/maxwin/BulkDock/SCRATCH/511017/C36283-P63

>  <fragmenstein_runtime>  (963) 
42.993064403533936

>  <fragmenstein_outcome>  (963) 
too moved

>  <fragmenstein_mode>  (963) 
expansion

>  <fragmenstein_error>  (963) 


$$$$
C36283-P45
     RDKit          3D

 32 34  0  0  0  0  0  0  0  0999 V2000
   10.3271  -16.8505   21.6703 C   0  0  0  0  0  0  0  0  0  0  0  0
    9.7129  -16.6033   20.3840 N   0  0  0  0  0  0  0  0  0  0  0  0
   10.1661  -15.6809   19.4778 C   0  0  0  0  0  0  0  0  0  0  0  0
    9.4413  -15.9291   18.3452 C   0  0  0  0  0  0  0  0  0  0  0  0
    8.4855  -16.8914   18.5778 N   0  0  0  0  0  0  0  0  0  0  0  0
    8.6688  -17.3377   19.8149 C   0  0  0  0  0  0  0  0  0  0  0  0
    8.0183  -18.5393   20.5612 C   0  0  0  0  0  0  0  0  0  0  0  0
    8.9696  -19.5274   20.6837 F   0  0  0  0  0  0  0  0  0  0  0  0
    7.7672  -18.1902   21.8725 F   0  0  0  0  0  0  0  0  0  0  0  0
    6.6809  -19.2057   19.9598 C   0  0  0  0  0  0  0  0  0  0  0  0
    6.5035  -19.2917   18.7719 O   0  0  0  0  0  0  0  0  0  0  0  0
    5.8635  -19.7285   21.1102 N   0  0  0  0  0  0  0  0  0  0  0  0
    4.6270  -20.3781   21.1317 C   0  0  0  0  0  0  0  0  0  0  0  0
    4.0646  -20.9508   19.9044 C   0  0  0  0  0  0  0  0  0  0  0  0
    2.8006  -21.4159   19.8804 C   0  0  0  0  0  0  0  0  0  0  0  0
    2.0269  -21.3392   21.0269 N   0  0  0  0  0  0  0  0  0  0  0  0
    0.6914  -21.5771   21.1879 C   0  0  0  0  0  0  0  0  0  0  0  0
    0.4144  -21.2180   22.4822 C   0  0  0  0  0  0  0  0  0  0  0  0
    1.5547  -20.8241   23.1402 N   0  0  0  0  0  0  0  0  0  0  0  0
    2.5174  -20.8898   22.2425 C   0  0  0  0  0  0  0  0  0  0  0  0
    3.8901  -20.4632   22.2760 C   0  0  0  0  0  0  0  0  0  0  0  0
    9.6200  -16.5906   22.4593 H   0  0  0  0  0  0  0  0  0  0  0  0
   11.2247  -16.2338   21.7679 H   0  0  0  0  0  0  0  0  0  0  0  0
   10.6062  -17.9050   21.7302 H   0  0  0  0  0  0  0  0  0  0  0  0
   10.9805  -15.0010   19.6849 H   0  0  0  0  0  0  0  0  0  0  0  0
    9.5477  -15.4670   17.3735 H   0  0  0  0  0  0  0  0  0  0  0  0
    6.2672  -19.3987   21.9851 H   0  0  0  0  0  0  0  0  0  0  0  0
    4.6749  -20.9811   19.0068 H   0  0  0  0  0  0  0  0  0  0  0  0
    2.3373  -21.8101   18.9848 H   0  0  0  0  0  0  0  0  0  0  0  0
    0.0653  -21.9127   20.3759 H   0  0  0  0  0  0  0  0  0  0  0  0
   -0.5521  -21.2171   22.9658 H   0  0  0  0  0  0  0  0  0  0  0  0
    4.2489  -20.0655   23.2184 H   0  0  0  0  0  0  0  0  0  0  0  0
  1  2  1  0
  2  3  1  0
  3  4  2  0
  4  5  1  0
  5  6  2  0
  6  7  1  0
  7  8  1  0
  7  9  1  0
  7 10  1  0
 10 11  2  0
 10 12  1  0
 12 13  1  0
 13 14  1  0
 14 15  2  0
 15 16  1  0
 16 17  1  0
 17 18  2  0
 18 19  1  0
 19 20  2  0
 20 21  1  0
  6  2  1  0
 21 13  2  0
 20 16  1  0
  1 22  1  0
  1 23  1  0
  1 24  1  0
  3 25  1  0
  4 26  1  0
 12 27  1  0
 14 28  1  0
 15 29  1  0
 17 30  1  0
 18 31  1  0
 21 32  1  0
M  END
>  <Energy>  (964) 
124.68203369420603

>  <compound_id>  (964) 
36283

>  <target_id>  (964) 
1

>  <reference_id>  (964) 
45

>  <inspiration_ids>  (964) 
[63, 45]

>  <energy_score>  (964) 
-5.620041690815015

>  <distance_score>  (964) 
14.385461561994864

>  <path>  (964) 
/opt/xchem-fragalysis-2/maxwin/BulkDock/SCRATCH/511017/C36283-P45/C36283-P45.minimised.mol

>  <scratch_subdir>  (964) 
/opt/xchem-fragalysis-2/maxwin/BulkDock/SCRATCH/511017/C36283-P45

>  <fragmenstein_runtime>  (964) 
44.82748198509216

>  <fragmenstein_outcome>  (964) 
too moved

>  <fragmenstein_mode>  (964) 
expansion

>  <fragmenstein_error>  (964) 


$$$$
C36285-P63
     RDKit          3D

 34 36  0  0  0  0  0  0  0  0999 V2000
    5.9605  -14.9110   30.1581 C   0  0  0  0  0  0  0  0  0  0  0  0
    5.8605  -14.8096   28.7224 N   0  0  0  0  0  0  0  0  0  0  0  0
    6.6011  -13.9529   27.9378 C   0  0  0  0  0  0  0  0  0  0  0  0
    6.3371  -14.1100   26.6642 N   0  0  0  0  0  0  0  0  0  0  0  0
    5.4050  -15.1294   26.6432 C   0  0  0  0  0  0  0  0  0  0  0  0
    5.0328  -15.5656   27.9164 C   0  0  0  0  0  0  0  0  0  0  0  0
    3.6204  -16.6158   28.3994 S   0  0  0  0  0  0  0  0  0  0  0  0
    2.4435  -15.3189   28.8435 C   0  0  0  0  0  0  0  0  0  0  0  0
    3.2400  -17.2887   27.1814 O   0  0  0  0  0  0  0  0  0  0  0  0
    3.8653  -17.4355   29.6772 N   0  0  0  0  0  0  0  0  0  0  0  0
    2.6716  -17.9503   30.2644 C   0  0  0  0  0  0  0  0  0  0  0  0
    2.0739  -17.2750   31.1039 O   0  0  0  0  0  0  0  0  0  0  0  0
    2.0210  -19.2273   29.8428 C   0  0  0  0  0  0  0  0  0  0  0  0
    0.5834  -19.2550   29.5660 C   0  0  0  0  0  0  0  0  0  0  0  0
    0.0105  -20.4335   29.2968 C   0  0  0  0  0  0  0  0  0  0  0  0
    0.7997  -21.5691   29.3186 N   0  0  0  0  0  0  0  0  0  0  0  0
    0.4408  -22.8558   29.1426 C   0  0  0  0  0  0  0  0  0  0  0  0
    1.5417  -23.6178   29.4244 C   0  0  0  0  0  0  0  0  0  0  0  0
    2.6096  -22.8203   29.7113 N   0  0  0  0  0  0  0  0  0  0  0  0
    2.1489  -21.5922   29.6148 C   0  0  0  0  0  0  0  0  0  0  0  0
    2.7737  -20.3438   29.8397 C   0  0  0  0  0  0  0  0  0  0  0  0
    6.7105  -14.2035   30.5217 H   0  0  0  0  0  0  0  0  0  0  0  0
    6.2653  -15.9283   30.4147 H   0  0  0  0  0  0  0  0  0  0  0  0
    4.9902  -14.6698   30.5966 H   0  0  0  0  0  0  0  0  0  0  0  0
    7.3166  -13.2545   28.3528 H   0  0  0  0  0  0  0  0  0  0  0  0
    4.9899  -15.4784   25.7054 H   0  0  0  0  0  0  0  0  0  0  0  0
    2.7094  -14.9289   29.8290 H   0  0  0  0  0  0  0  0  0  0  0  0
    1.4450  -15.7541   28.8772 H   0  0  0  0  0  0  0  0  0  0  0  0
    2.4781  -14.4960   28.1319 H   0  0  0  0  0  0  0  0  0  0  0  0
    0.0160  -18.3312   29.5865 H   0  0  0  0  0  0  0  0  0  0  0  0
   -1.0395  -20.5565   29.0871 H   0  0  0  0  0  0  0  0  0  0  0  0
   -0.5631  -23.0808   28.8463 H   0  0  0  0  0  0  0  0  0  0  0  0
    1.6292  -24.6940   29.4285 H   0  0  0  0  0  0  0  0  0  0  0  0
    3.8337  -20.3342   30.0714 H   0  0  0  0  0  0  0  0  0  0  0  0
  1  2  1  0
  2  3  1  0
  3  4  2  0
  4  5  1  0
  5  6  2  0
  6  7  1  0
  7  8  1  0
  7  9  2  0
  7 10  2  0
 10 11  1  0
 11 12  2  0
 11 13  1  0
 13 14  1  0
 14 15  2  0
 15 16  1  0
 16 17  1  0
 17 18  2  0
 18 19  1  0
 19 20  2  0
 20 21  1  0
  6  2  1  0
 21 13  2  0
 20 16  1  0
  1 22  1  0
  1 23  1  0
  1 24  1  0
  3 25  1  0
  5 26  1  0
  8 27  1  0
  8 28  1  0
  8 29  1  0
 14 30  1  0
 15 31  1  0
 17 32  1  0
 18 33  1  0
 21 34  1  0
M  END
>  <Energy>  (965) 
-13.296729372558573

>  <compound_id>  (965) 
36285

>  <target_id>  (965) 
1

>  <reference_id>  (965) 
63

>  <inspiration_ids>  (965) 
[63, 45]

>  <energy_score>  (965) 
-34.65970834980294

>  <distance_score>  (965) 
14.715533998449786

>  <path>  (965) 
/opt/xchem-fragalysis-2/maxwin/BulkDock/SCRATCH/511017/C36285-P63/C36285-P63.minimised.mol

>  <scratch_subdir>  (965) 
/opt/xchem-fragalysis-2/maxwin/BulkDock/SCRATCH/511017/C36285-P63

>  <fragmenstein_runtime>  (965) 
22.5098557472229

>  <fragmenstein_outcome>  (965) 
too moved

>  <fragmenstein_mode>  (965) 
expansion

>  <fragmenstein_error>  (965) 


$$$$
C36285-P45
     RDKit          3D

 34 36  0  0  0  0  0  0  0  0999 V2000
   -2.1923  -14.5784   16.5510 C   0  0  0  0  0  0  0  0  0  0  0  0
   -1.6008  -14.1301   17.8365 N   0  0  0  0  0  0  0  0  0  0  0  0
   -1.8761  -12.7954   18.3187 C   0  0  0  0  0  0  0  0  0  0  0  0
   -2.1113  -12.7292   19.6247 N   0  0  0  0  0  0  0  0  0  0  0  0
   -2.0317  -14.0821   20.1043 C   0  0  0  0  0  0  0  0  0  0  0  0
   -1.5798  -15.1572   19.1716 C   0  0  0  0  0  0  0  0  0  0  0  0
   -2.4400  -17.1224   19.1257 S   0  0  0  0  0  0  0  0  0  0  0  0
   -1.1387  -18.1259   19.8064 C   0  0  0  0  0  0  0  0  0  0  0  0
   -2.5995  -17.4562   17.7280 O   0  0  0  0  0  0  0  0  0  0  0  0
   -3.6660  -17.1146   20.0718 N   0  0  0  0  0  0  0  0  0  0  0  0
   -4.6005  -18.2126   20.0040 C   0  0  0  0  0  0  0  0  0  0  0  0
   -5.3541  -18.3797   19.0512 O   0  0  0  0  0  0  0  0  0  0  0  0
   -4.6780  -19.1637   21.1783 C   0  0  0  0  0  0  0  0  0  0  0  0
   -3.6963  -18.9006   22.2137 C   0  0  0  0  0  0  0  0  0  0  0  0
   -3.8192  -19.4216   23.4177 C   0  0  0  0  0  0  0  0  0  0  0  0
   -4.7854  -20.3698   23.5920 N   0  0  0  0  0  0  0  0  0  0  0  0
   -4.8667  -21.2580   24.7632 C   0  0  0  0  0  0  0  0  0  0  0  0
   -5.4518  -22.7693   24.2042 C   0  0  0  0  0  0  0  0  0  0  0  0
   -5.9928  -22.2809   22.7444 N   0  0  0  0  0  0  0  0  0  0  0  0
   -5.6054  -20.9682   22.4826 C   0  0  0  0  0  0  0  0  0  0  0  0
   -5.5918  -20.1666   21.2907 C   0  0  0  0  0  0  0  0  0  0  0  0
   -1.4213  -14.8012   15.8203 H   0  0  0  0  0  0  0  0  0  0  0  0
   -2.8635  -13.7994   16.1898 H   0  0  0  0  0  0  0  0  0  0  0  0
   -2.8041  -15.4630   16.6894 H   0  0  0  0  0  0  0  0  0  0  0  0
   -2.0700  -11.9585   17.6851 H   0  0  0  0  0  0  0  0  0  0  0  0
   -2.4860  -14.2797   21.0099 H   0  0  0  0  0  0  0  0  0  0  0  0
   -1.5678  -19.0714   20.1431 H   0  0  0  0  0  0  0  0  0  0  0  0
   -0.6622  -17.6066   20.6341 H   0  0  0  0  0  0  0  0  0  0  0  0
   -0.4075  -18.3545   19.0306 H   0  0  0  0  0  0  0  0  0  0  0  0
   -2.8396  -18.2867   22.0101 H   0  0  0  0  0  0  0  0  0  0  0  0
   -3.0866  -19.2608   24.1926 H   0  0  0  0  0  0  0  0  0  0  0  0
   -4.6742  -20.8814   25.7403 H   0  0  0  0  0  0  0  0  0  0  0  0
   -5.7581  -23.6461   24.7518 H   0  0  0  0  0  0  0  0  0  0  0  0
   -6.3067  -20.3893   20.5057 H   0  0  0  0  0  0  0  0  0  0  0  0
  1  2  1  0
  2  3  1  0
  3  4  2  0
  4  5  1  0
  5  6  2  0
  6  7  1  0
  7  8  1  0
  7  9  2  0
  7 10  2  0
 10 11  1  0
 11 12  2  0
 11 13  1  0
 13 14  1  0
 14 15  2  0
 15 16  1  0
 16 17  1  0
 17 18  2  0
 18 19  1  0
 19 20  2  0
 20 21  1  0
  6  2  1  0
 21 13  2  0
 20 16  1  0
  1 22  1  0
  1 23  1  0
  1 24  1  0
  3 25  1  0
  5 26  1  0
  8 27  1  0
  8 28  1  0
  8 29  1  0
 14 30  1  0
 15 31  1  0
 17 32  1  0
 18 33  1  0
 21 34  1  0
M  END
>  <Energy>  (966) 
142.88890086311289

>  <compound_id>  (966) 
36285

>  <target_id>  (966) 
1

>  <reference_id>  (966) 
45

>  <inspiration_ids>  (966) 
[63, 45]

>  <energy_score>  (966) 
121.52592188586164

>  <distance_score>  (966) 
13.587726292267943

>  <path>  (966) 
/opt/xchem-fragalysis-2/maxwin/BulkDock/SCRATCH/511017/C36285-P45/C36285-P45.minimised.mol

>  <scratch_subdir>  (966) 
/opt/xchem-fragalysis-2/maxwin/BulkDock/SCRATCH/511017/C36285-P45

>  <fragmenstein_runtime>  (966) 
23.7687246799469

>  <fragmenstein_outcome>  (966) 
too moved

>  <fragmenstein_mode>  (966) 
expansion

>  <fragmenstein_error>  (966) 


$$$$
C36288-P63
     RDKit          3D

 36 38  0  0  0  0  0  0  0  0999 V2000
    9.6509   -5.8967   20.2350 C   0  0  0  0  0  0  0  0  0  0  0  0
    9.4459   -6.3259   18.7351 N   0  0  0  0  0  0  0  0  0  0  0  0
   10.5800   -6.4195   16.9476 C   0  0  0  0  0  0  0  0  0  0  0  0
    9.2836   -7.3081   15.7309 C   0  0  0  0  0  0  0  0  0  0  0  0
    7.5080   -6.6587   16.5577 N   0  0  0  0  0  0  0  0  0  0  0  0
    7.3724   -6.6749   18.3671 C   0  0  0  0  0  0  0  0  0  0  0  0
    5.9372   -8.0760   19.2680 C   0  0  0  0  0  0  0  0  0  0  0  0
    5.7265  -10.2898   19.5128 O   0  0  0  0  0  0  0  0  0  0  0  0
    4.8763  -11.9069   20.7297 C   0  0  0  0  0  0  0  0  0  0  0  0
    3.7280  -13.7795   21.4636 C   0  0  0  0  0  0  0  0  0  0  0  0
    2.8213  -14.0607   20.6553 O   0  0  0  0  0  0  0  0  0  0  0  0
    4.1089  -15.1683   23.0471 N   0  0  0  0  0  0  0  0  0  0  0  0
    3.4575  -16.9980   23.4970 C   0  0  0  0  0  0  0  0  0  0  0  0
    3.5753  -18.9067   22.9060 C   0  0  0  0  0  0  0  0  0  0  0  0
    3.3004  -20.1456   23.4223 C   0  0  0  0  0  0  0  0  0  0  0  0
    2.9297  -20.2384   24.7124 N   0  0  0  0  0  0  0  0  0  0  0  0
    2.8799  -21.3275   25.5468 C   0  0  0  0  0  0  0  0  0  0  0  0
    2.6572  -20.8048   26.7970 C   0  0  0  0  0  0  0  0  0  0  0  0
    2.5793  -19.4342   26.7326 N   0  0  0  0  0  0  0  0  0  0  0  0
    2.8013  -19.1154   25.4579 C   0  0  0  0  0  0  0  0  0  0  0  0
    3.1529  -17.7789   24.8979 C   0  0  0  0  0  0  0  0  0  0  0  0
    9.3514   -6.7810   20.7964 H   0  0  0  0  0  0  0  0  0  0  0  0
   10.6916   -5.6423   20.4422 H   0  0  0  0  0  0  0  0  0  0  0  0
    8.9524   -5.0913   20.4741 H   0  0  0  0  0  0  0  0  0  0  0  0
   11.1154   -5.4139   16.7847 H   0  0  0  0  0  0  0  0  0  0  0  0
    9.0995   -7.7296   14.7660 H   0  0  0  0  0  0  0  0  0  0  0  0
    5.1495   -7.8074   18.5623 H   0  0  0  0  0  0  0  0  0  0  0  0
    6.5796   -7.7615   20.1093 H   0  0  0  0  0  0  0  0  0  0  0  0
    4.9582  -11.2790   21.6159 H   0  0  0  0  0  0  0  0  0  0  0  0
    5.8042  -12.4407   20.4821 H   0  0  0  0  0  0  0  0  0  0  0  0
    4.7896  -14.7903   23.6638 H   0  0  0  0  0  0  0  0  0  0  0  0
    4.2979  -19.1792   22.0820 H   0  0  0  0  0  0  0  0  0  0  0  0
    3.5422  -21.0576   22.8943 H   0  0  0  0  0  0  0  0  0  0  0  0
    2.9942  -22.3372   25.1837 H   0  0  0  0  0  0  0  0  0  0  0  0
    2.5237  -21.3364   27.7297 H   0  0  0  0  0  0  0  0  0  0  0  0
    3.1694  -17.2770   25.8691 H   0  0  0  0  0  0  0  0  0  0  0  0
  1  2  1  0
  2  3  1  0
  3  4  2  0
  4  5  1  0
  5  6  2  0
  6  7  1  0
  7  8  1  0
  8  9  1  0
  9 10  1  0
 10 11  2  0
 10 12  1  0
 12 13  1  0
 13 14  1  0
 14 15  2  0
 15 16  1  0
 16 17  1  0
 17 18  2  0
 18 19  1  0
 19 20  2  0
 20 21  1  0
  6  2  1  0
 21 13  2  0
 20 16  1  0
  1 22  1  0
  1 23  1  0
  1 24  1  0
  3 25  1  0
  4 26  1  0
  7 27  1  0
  7 28  1  0
  9 29  1  0
  9 30  1  0
 12 31  1  0
 14 32  1  0
 15 33  1  0
 17 34  1  0
 18 35  1  0
 21 36  1  0
M  END
>  <Energy>  (967) 
2396.3579060924567

>  <compound_id>  (967) 
36288

>  <target_id>  (967) 
1

>  <reference_id>  (967) 
63

>  <inspiration_ids>  (967) 
[63, 45]

>  <energy_score>  (967) 
2296.4327040569424

>  <distance_score>  (967) 
11.98126446670024

>  <path>  (967) 
/opt/xchem-fragalysis-2/maxwin/BulkDock/SCRATCH/511017/C36288-P63/C36288-P63.minimised.mol

>  <scratch_subdir>  (967) 
/opt/xchem-fragalysis-2/maxwin/BulkDock/SCRATCH/511017/C36288-P63

>  <fragmenstein_runtime>  (967) 
26.475608587265015

>  <fragmenstein_outcome>  (967) 
too moved

>  <fragmenstein_mode>  (967) 
expansion

>  <fragmenstein_error>  (967) 


$$$$
C36288-P45
     RDKit          3D

 36 38  0  0  0  0  0  0  0  0999 V2000
    3.3852  -12.5826   22.4651 C   0  0  0  0  0  0  0  0  0  0  0  0
    3.4474  -13.4492   21.0529 N   0  0  0  0  0  0  0  0  0  0  0  0
    4.4866  -13.0751   20.0351 C   0  0  0  0  0  0  0  0  0  0  0  0
    3.9641  -13.6306   18.8479 C   0  0  0  0  0  0  0  0  0  0  0  0
    2.8015  -14.5867   18.9518 N   0  0  0  0  0  0  0  0  0  0  0  0
    2.3928  -14.7383   20.3193 C   0  0  0  0  0  0  0  0  0  0  0  0
    0.8925  -15.9554   20.7924 C   0  0  0  0  0  0  0  0  0  0  0  0
    0.4188  -17.4428   20.9026 O   0  0  0  0  0  0  0  0  0  0  0  0
   -0.6555  -17.8865   20.0831 C   0  0  0  0  0  0  0  0  0  0  0  0
   -1.5224  -19.2063   19.9687 C   0  0  0  0  0  0  0  0  0  0  0  0
   -1.0467  -20.1419   19.3808 O   0  0  0  0  0  0  0  0  0  0  0  0
   -2.8491  -19.0195   20.5421 N   0  0  0  0  0  0  0  0  0  0  0  0
   -3.9711  -19.8174   20.4993 C   0  0  0  0  0  0  0  0  0  0  0  0
   -4.0739  -20.7891   19.3951 C   0  0  0  0  0  0  0  0  0  0  0  0
   -5.1015  -21.6567   19.3421 C   0  0  0  0  0  0  0  0  0  0  0  0
   -6.0673  -21.6086   20.3342 N   0  0  0  0  0  0  0  0  0  0  0  0
   -7.1352  -22.4379   20.5502 C   0  0  0  0  0  0  0  0  0  0  0  0
   -7.8028  -21.8977   21.6188 C   0  0  0  0  0  0  0  0  0  0  0  0
   -7.1656  -20.7687   22.0715 N   0  0  0  0  0  0  0  0  0  0  0  0
   -6.0859  -20.6414   21.3313 C   0  0  0  0  0  0  0  0  0  0  0  0
   -4.9857  -19.7223   21.3911 C   0  0  0  0  0  0  0  0  0  0  0  0
    2.5128  -12.0113   22.7668 H   0  0  0  0  0  0  0  0  0  0  0  0
    4.0984  -11.7893   22.2961 H   0  0  0  0  0  0  0  0  0  0  0  0
    3.3509  -13.2874   23.3167 H   0  0  0  0  0  0  0  0  0  0  0  0
    5.2324  -12.3387   20.2762 H   0  0  0  0  0  0  0  0  0  0  0  0
    3.8379  -12.9369   18.0499 H   0  0  0  0  0  0  0  0  0  0  0  0
    0.4449  -15.5802   21.7212 H   0  0  0  0  0  0  0  0  0  0  0  0
    0.2480  -15.9275   20.0054 H   0  0  0  0  0  0  0  0  0  0  0  0
   -0.1682  -17.9998   19.1109 H   0  0  0  0  0  0  0  0  0  0  0  0
   -1.3868  -17.0747   19.9800 H   0  0  0  0  0  0  0  0  0  0  0  0
   -2.8735  -18.1328   21.0412 H   0  0  0  0  0  0  0  0  0  0  0  0
   -3.2978  -20.8191   18.6366 H   0  0  0  0  0  0  0  0  0  0  0  0
   -5.1977  -22.4154   18.5761 H   0  0  0  0  0  0  0  0  0  0  0  0
   -7.3252  -23.3027   19.9318 H   0  0  0  0  0  0  0  0  0  0  0  0
   -8.7131  -22.2565   22.0812 H   0  0  0  0  0  0  0  0  0  0  0  0
   -4.9642  -19.0149   22.2108 H   0  0  0  0  0  0  0  0  0  0  0  0
  1  2  1  0
  2  3  1  0
  3  4  2  0
  4  5  1  0
  5  6  2  0
  6  7  1  0
  7  8  1  0
  8  9  1  0
  9 10  1  0
 10 11  2  0
 10 12  1  0
 12 13  1  0
 13 14  1  0
 14 15  2  0
 15 16  1  0
 16 17  1  0
 17 18  2  0
 18 19  1  0
 19 20  2  0
 20 21  1  0
  6  2  1  0
 21 13  2  0
 20 16  1  0
  1 22  1  0
  1 23  1  0
  1 24  1  0
  3 25  1  0
  4 26  1  0
  7 27  1  0
  7 28  1  0
  9 29  1  0
  9 30  1  0
 12 31  1  0
 14 32  1  0
 15 33  1  0
 17 34  1  0
 18 35  1  0
 21 36  1  0
M  END
>  <Energy>  (968) 
339.55890987879468

>  <compound_id>  (968) 
36288

>  <target_id>  (968) 
1

>  <reference_id>  (968) 
45

>  <inspiration_ids>  (968) 
[63, 45]

>  <energy_score>  (968) 
239.63370784330448

>  <distance_score>  (968) 
12.096681900254078

>  <path>  (968) 
/opt/xchem-fragalysis-2/maxwin/BulkDock/SCRATCH/511017/C36288-P45/C36288-P45.minimised.mol

>  <scratch_subdir>  (968) 
/opt/xchem-fragalysis-2/maxwin/BulkDock/SCRATCH/511017/C36288-P45

>  <fragmenstein_runtime>  (968) 
33.19482064247131

>  <fragmenstein_outcome>  (968) 
too moved

>  <fragmenstein_mode>  (968) 
expansion

>  <fragmenstein_error>  (968) 


$$$$
C36273-P63
     RDKit          3D

 36 38  0  0  0  0  0  0  0  0999 V2000
    6.7854   -7.9831   19.7467 C   0  0  0  0  0  0  0  0  0  0  0  0
    7.2376   -9.9855   19.6612 N   0  0  0  0  0  0  0  0  0  0  0  0
    8.5046  -10.0967   18.9429 C   0  0  0  0  0  0  0  0  0  0  0  0
    8.1356  -10.5911   17.8168 C   0  0  0  0  0  0  0  0  0  0  0  0
    6.5038  -10.9763   18.3093 N   0  0  0  0  0  0  0  0  0  0  0  0
    6.2300  -11.3647   19.4971 C   0  0  0  0  0  0  0  0  0  0  0  0
    4.6850  -12.8809   19.9332 S   0  0  0  0  0  0  0  0  0  0  0  0
    2.8782  -14.4296   19.2384 C   0  0  0  0  0  0  0  0  0  0  0  0
    1.5402  -15.6012   20.3434 C   0  0  0  0  0  0  0  0  0  0  0  0
   -0.1452  -16.6695   20.3698 C   0  0  0  0  0  0  0  0  0  0  0  0
   -1.0663  -16.0522   19.8845 O   0  0  0  0  0  0  0  0  0  0  0  0
   -0.0949  -18.0234   20.8807 N   0  0  0  0  0  0  0  0  0  0  0  0
   -1.0867  -18.9630   21.0480 C   0  0  0  0  0  0  0  0  0  0  0  0
   -1.0921  -19.6532   22.3253 C   0  0  0  0  0  0  0  0  0  0  0  0
   -2.2739  -19.7380   22.9502 C   0  0  0  0  0  0  0  0  0  0  0  0
   -3.4374  -19.4983   22.2542 N   0  0  0  0  0  0  0  0  0  0  0  0
   -4.7228  -19.4530   22.7042 C   0  0  0  0  0  0  0  0  0  0  0  0
   -5.5021  -19.4549   21.5769 C   0  0  0  0  0  0  0  0  0  0  0  0
   -4.7181  -19.3526   20.4512 N   0  0  0  0  0  0  0  0  0  0  0  0
   -3.4760  -19.2841   20.8954 C   0  0  0  0  0  0  0  0  0  0  0  0
   -2.2279  -18.9064   20.3081 C   0  0  0  0  0  0  0  0  0  0  0  0
    7.0839   -7.4576   20.6596 H   0  0  0  0  0  0  0  0  0  0  0  0
    7.1745   -7.3226   19.0060 H   0  0  0  0  0  0  0  0  0  0  0  0
    5.7203   -7.9198   19.3303 H   0  0  0  0  0  0  0  0  0  0  0  0
    9.0822   -9.2299   19.0539 H   0  0  0  0  0  0  0  0  0  0  0  0
    8.5025  -10.5723   16.8013 H   0  0  0  0  0  0  0  0  0  0  0  0
    3.4672  -15.1172   18.5885 H   0  0  0  0  0  0  0  0  0  0  0  0
    2.3136  -14.0331   18.3763 H   0  0  0  0  0  0  0  0  0  0  0  0
    1.1918  -15.8949   19.3568 H   0  0  0  0  0  0  0  0  0  0  0  0
    1.1803  -15.0305   21.1204 H   0  0  0  0  0  0  0  0  0  0  0  0
    0.8055  -18.1841   21.2873 H   0  0  0  0  0  0  0  0  0  0  0  0
   -0.1613  -19.9214   22.8047 H   0  0  0  0  0  0  0  0  0  0  0  0
   -2.4051  -20.0445   23.9592 H   0  0  0  0  0  0  0  0  0  0  0  0
   -4.9209  -19.4368   23.7564 H   0  0  0  0  0  0  0  0  0  0  0  0
   -6.5816  -19.4766   21.5078 H   0  0  0  0  0  0  0  0  0  0  0  0
   -2.2830  -18.3198   19.3979 H   0  0  0  0  0  0  0  0  0  0  0  0
  1  2  1  0
  2  3  1  0
  3  4  2  0
  4  5  1  0
  5  6  2  0
  6  7  1  0
  7  8  1  0
  8  9  1  0
  9 10  1  0
 10 11  2  0
 10 12  1  0
 12 13  1  0
 13 14  1  0
 14 15  2  0
 15 16  1  0
 16 17  1  0
 17 18  2  0
 18 19  1  0
 19 20  2  0
 20 21  1  0
  6  2  1  0
 21 13  2  0
 20 16  1  0
  1 22  1  0
  1 23  1  0
  1 24  1  0
  3 25  1  0
  4 26  1  0
  8 27  1  0
  8 28  1  0
  9 29  1  0
  9 30  1  0
 12 31  1  0
 14 32  1  0
 15 33  1  0
 17 34  1  0
 18 35  1  0
 21 36  1  0
M  END
>  <Energy>  (969) 
782.77948113250216

>  <compound_id>  (969) 
36273

>  <target_id>  (969) 
1

>  <reference_id>  (969) 
63

>  <inspiration_ids>  (969) 
[63, 45]

>  <energy_score>  (969) 
750.7657579375033

>  <distance_score>  (969) 
11.00055528682437

>  <path>  (969) 
/opt/xchem-fragalysis-2/maxwin/BulkDock/SCRATCH/511017/C36273-P63/C36273-P63.minimised.mol

>  <scratch_subdir>  (969) 
/opt/xchem-fragalysis-2/maxwin/BulkDock/SCRATCH/511017/C36273-P63

>  <fragmenstein_runtime>  (969) 
27.3073832988739

>  <fragmenstein_outcome>  (969) 
too moved

>  <fragmenstein_mode>  (969) 
expansion

>  <fragmenstein_error>  (969) 


$$$$
C36273-P45
     RDKit          3D

 36 38  0  0  0  0  0  0  0  0999 V2000
    3.3329   -9.7410   13.6055 C   0  0  0  0  0  0  0  0  0  0  0  0
    4.0689  -10.8700   14.5156 N   0  0  0  0  0  0  0  0  0  0  0  0
    4.5187  -11.7420   13.4939 C   0  0  0  0  0  0  0  0  0  0  0  0
    3.2901  -12.2921   13.3126 C   0  0  0  0  0  0  0  0  0  0  0  0
    2.7298  -12.5106   14.5935 N   0  0  0  0  0  0  0  0  0  0  0  0
    3.3671  -11.7814   15.6608 C   0  0  0  0  0  0  0  0  0  0  0  0
    3.4348  -12.5060   17.9063 S   0  0  0  0  0  0  0  0  0  0  0  0
    2.2850  -14.6631   18.5468 C   0  0  0  0  0  0  0  0  0  0  0  0
    1.0277  -15.9264   19.8381 C   0  0  0  0  0  0  0  0  0  0  0  0
   -0.7914  -16.5304   20.0811 C   0  0  0  0  0  0  0  0  0  0  0  0
   -1.6836  -15.7708   19.7734 O   0  0  0  0  0  0  0  0  0  0  0  0
   -0.8408  -17.9454   20.5424 N   0  0  0  0  0  0  0  0  0  0  0  0
   -1.9044  -18.8208   20.6613 C   0  0  0  0  0  0  0  0  0  0  0  0
   -2.3208  -19.4461   19.4044 C   0  0  0  0  0  0  0  0  0  0  0  0
   -3.5136  -20.0546   19.3131 C   0  0  0  0  0  0  0  0  0  0  0  0
   -4.3390  -20.0797   20.4245 N   0  0  0  0  0  0  0  0  0  0  0  0
   -5.6192  -20.5519   20.5316 C   0  0  0  0  0  0  0  0  0  0  0  0
   -5.9952  -20.2738   21.8184 C   0  0  0  0  0  0  0  0  0  0  0  0
   -4.9632  -19.7060   22.5284 N   0  0  0  0  0  0  0  0  0  0  0  0
   -3.9643  -19.5931   21.6714 C   0  0  0  0  0  0  0  0  0  0  0  0
   -2.6557  -19.0090   21.7755 C   0  0  0  0  0  0  0  0  0  0  0  0
    2.6375  -10.2032   12.9010 H   0  0  0  0  0  0  0  0  0  0  0  0
    4.1695   -9.2646   13.0773 H   0  0  0  0  0  0  0  0  0  0  0  0
    2.7892   -9.0041   14.1943 H   0  0  0  0  0  0  0  0  0  0  0  0
    5.3042  -11.4600   12.8060 H   0  0  0  0  0  0  0  0  0  0  0  0
    2.8226  -12.6879   12.4165 H   0  0  0  0  0  0  0  0  0  0  0  0
    3.1846  -15.2467   18.3955 H   0  0  0  0  0  0  0  0  0  0  0  0
    1.7374  -14.6645   17.6192 H   0  0  0  0  0  0  0  0  0  0  0  0
    0.9635  -17.0124   19.4602 H   0  0  0  0  0  0  0  0  0  0  0  0
    1.2806  -15.6647   20.8178 H   0  0  0  0  0  0  0  0  0  0  0  0
    0.0905  -18.2454   20.7914 H   0  0  0  0  0  0  0  0  0  0  0  0
   -1.6595  -19.3805   18.5466 H   0  0  0  0  0  0  0  0  0  0  0  0
   -3.8815  -20.5002   18.3986 H   0  0  0  0  0  0  0  0  0  0  0  0
   -6.1458  -20.9929   19.6983 H   0  0  0  0  0  0  0  0  0  0  0  0
   -6.9646  -20.4577   22.2569 H   0  0  0  0  0  0  0  0  0  0  0  0
   -2.3854  -18.5869   22.7318 H   0  0  0  0  0  0  0  0  0  0  0  0
  1  2  1  0
  2  3  1  0
  3  4  2  0
  4  5  1  0
  5  6  2  0
  6  7  1  0
  7  8  1  0
  8  9  1  0
  9 10  1  0
 10 11  2  0
 10 12  1  0
 12 13  1  0
 13 14  1  0
 14 15  2  0
 15 16  1  0
 16 17  1  0
 17 18  2  0
 18 19  1  0
 19 20  2  0
 20 21  1  0
  6  2  1  0
 21 13  2  0
 20 16  1  0
  1 22  1  0
  1 23  1  0
  1 24  1  0
  3 25  1  0
  4 26  1  0
  8 27  1  0
  8 28  1  0
  9 29  1  0
  9 30  1  0
 12 31  1  0
 14 32  1  0
 15 33  1  0
 17 34  1  0
 18 35  1  0
 21 36  1  0
M  END
>  <Energy>  (970) 
596.7708252750856

>  <compound_id>  (970) 
36273

>  <target_id>  (970) 
1

>  <reference_id>  (970) 
45

>  <inspiration_ids>  (970) 
[63, 45]

>  <energy_score>  (970) 
564.7571020800797

>  <distance_score>  (970) 
11.985828917660731

>  <path>  (970) 
/opt/xchem-fragalysis-2/maxwin/BulkDock/SCRATCH/511017/C36273-P45/C36273-P45.minimised.mol

>  <scratch_subdir>  (970) 
/opt/xchem-fragalysis-2/maxwin/BulkDock/SCRATCH/511017/C36273-P45

>  <fragmenstein_runtime>  (970) 
22.94510555267334

>  <fragmenstein_outcome>  (970) 
too moved

>  <fragmenstein_mode>  (970) 
expansion

>  <fragmenstein_error>  (970) 


$$$$
C36289-P63
     RDKit          3D

 41 43  0  0  0  0  0  0  0  0999 V2000
    1.9555   -6.2653   14.1985 C   0  0  0  0  0  0  0  0  0  0  0  0
    0.7212   -6.0834   15.0850 C   0  0  0  0  0  0  0  0  0  0  0  0
    0.0101   -4.7756   14.7355 C   0  0  0  0  0  0  0  0  0  0  0  0
    1.1020   -6.0962   16.5413 C   0  0  0  0  0  0  0  0  0  0  0  0
    2.1917   -5.5292   17.0308 N   0  0  0  0  0  0  0  0  0  0  0  0
    2.1002   -5.6655   18.3815 C   0  0  0  0  0  0  0  0  0  0  0  0
    0.9655   -6.3657   18.7274 C   0  0  0  0  0  0  0  0  0  0  0  0
    0.3189   -6.6541   17.5573 N   0  0  0  0  0  0  0  0  0  0  0  0
   -1.0015   -7.2788   17.3776 C   0  0  0  0  0  0  0  0  0  0  0  0
   -1.8628   -7.8616   18.5594 C   0  0  0  0  0  0  0  0  0  0  0  0
   -1.7805   -9.3150   18.7626 N   0  0  0  0  0  0  0  0  0  0  0  0
   -2.7834  -10.2754   19.1510 C   0  0  0  0  0  0  0  0  0  0  0  0
   -3.9608  -10.1462   19.3306 O   0  0  0  0  0  0  0  0  0  0  0  0
   -2.1999  -11.7387   19.2741 C   0  0  0  0  0  0  0  0  0  0  0  0
   -1.9805  -12.5232   18.0941 C   0  0  0  0  0  0  0  0  0  0  0  0
   -1.6966  -13.8483   17.9876 C   0  0  0  0  0  0  0  0  0  0  0  0
   -1.7434  -14.8364   19.3676 N   0  0  0  0  0  0  0  0  0  0  0  0
   -2.1966  -16.2061   19.5077 C   0  0  0  0  0  0  0  0  0  0  0  0
   -3.2276  -16.1427   20.4201 C   0  0  0  0  0  0  0  0  0  0  0  0
   -3.0816  -14.8474   21.2146 N   0  0  0  0  0  0  0  0  0  0  0  0
   -2.2832  -14.0004   20.5127 C   0  0  0  0  0  0  0  0  0  0  0  0
   -2.4276  -12.4616   20.3819 C   0  0  0  0  0  0  0  0  0  0  0  0
    2.4953   -7.1813   14.4595 H   0  0  0  0  0  0  0  0  0  0  0  0
    2.6564   -5.4290   14.3025 H   0  0  0  0  0  0  0  0  0  0  0  0
    1.6678   -6.3320   13.1438 H   0  0  0  0  0  0  0  0  0  0  0  0
    0.0379   -6.9109   14.8721 H   0  0  0  0  0  0  0  0  0  0  0  0
    0.6555   -3.9077   14.9130 H   0  0  0  0  0  0  0  0  0  0  0  0
   -0.8938   -4.6435   15.3401 H   0  0  0  0  0  0  0  0  0  0  0  0
   -0.2879   -4.7655   13.6816 H   0  0  0  0  0  0  0  0  0  0  0  0
    2.8488   -5.2488   19.0416 H   0  0  0  0  0  0  0  0  0  0  0  0
    0.5801   -6.6521   19.6952 H   0  0  0  0  0  0  0  0  0  0  0  0
   -0.8726   -8.0517   16.6142 H   0  0  0  0  0  0  0  0  0  0  0  0
   -1.6017   -6.4744   16.9322 H   0  0  0  0  0  0  0  0  0  0  0  0
   -2.9191   -7.6481   18.3605 H   0  0  0  0  0  0  0  0  0  0  0  0
   -1.6073   -7.3871   19.5107 H   0  0  0  0  0  0  0  0  0  0  0  0
   -0.8695   -9.7596   18.7887 H   0  0  0  0  0  0  0  0  0  0  0  0
   -2.5543  -12.0847   17.3083 H   0  0  0  0  0  0  0  0  0  0  0  0
   -1.9425  -14.3570   17.0488 H   0  0  0  0  0  0  0  0  0  0  0  0
   -2.0222  -16.9606   18.7601 H   0  0  0  0  0  0  0  0  0  0  0  0
   -3.9635  -16.8757   20.7298 H   0  0  0  0  0  0  0  0  0  0  0  0
   -3.0009  -11.8721   21.0841 H   0  0  0  0  0  0  0  0  0  0  0  0
  1  2  1  0
  2  3  1  0
  2  4  1  0
  4  5  2  0
  5  6  1  0
  6  7  2  0
  7  8  1  0
  8  9  1  0
  9 10  1  0
 10 11  1  0
 11 12  1  0
 12 13  2  0
 12 14  1  0
 14 15  1  0
 15 16  2  0
 16 17  1  0
 17 18  1  0
 18 19  2  0
 19 20  1  0
 20 21  2  0
 21 22  1  0
  8  4  1  0
 22 14  2  0
 21 17  1  0
  1 23  1  0
  1 24  1  0
  1 25  1  0
  2 26  1  0
  3 27  1  0
  3 28  1  0
  3 29  1  0
  6 30  1  0
  7 31  1  0
  9 32  1  0
  9 33  1  0
 10 34  1  0
 10 35  1  0
 11 36  1  0
 15 37  1  0
 16 38  1  0
 18 39  1  0
 19 40  1  0
 22 41  1  0
M  END
>  <Energy>  (971) 
130.25977871396279

>  <compound_id>  (971) 
36289

>  <target_id>  (971) 
1

>  <reference_id>  (971) 
63

>  <inspiration_ids>  (971) 
[63, 45]

>  <energy_score>  (971) 
67.23011279903926

>  <distance_score>  (971) 
15.20491224205496

>  <path>  (971) 
/opt/xchem-fragalysis-2/maxwin/BulkDock/SCRATCH/511017/C36289-P63/C36289-P63.minimised.mol

>  <scratch_subdir>  (971) 
/opt/xchem-fragalysis-2/maxwin/BulkDock/SCRATCH/511017/C36289-P63

>  <fragmenstein_runtime>  (971) 
35.13340449333191

>  <fragmenstein_outcome>  (971) 
too moved

>  <fragmenstein_mode>  (971) 
expansion

>  <fragmenstein_error>  (971) 


$$$$
C36289-P45
     RDKit          3D

 41 43  0  0  0  0  0  0  0  0999 V2000
    3.6455  -11.6373   16.3914 C   0  0  0  0  0  0  0  0  0  0  0  0
    3.1853  -12.2900   17.9236 C   0  0  0  0  0  0  0  0  0  0  0  0
    2.6921  -10.3074   17.8683 C   0  0  0  0  0  0  0  0  0  0  0  0
    1.9307  -14.0086   18.2306 C   0  0  0  0  0  0  0  0  0  0  0  0
    2.8597  -14.3555   19.1042 N   0  0  0  0  0  0  0  0  0  0  0  0
    3.5901  -14.6930   18.1571 C   0  0  0  0  0  0  0  0  0  0  0  0
    2.7769  -15.7357   18.0516 C   0  0  0  0  0  0  0  0  0  0  0  0
    1.3546  -15.7719   18.9243 N   0  0  0  0  0  0  0  0  0  0  0  0
    0.2999  -17.2387   20.0236 C   0  0  0  0  0  0  0  0  0  0  0  0
   -0.3322  -19.1718   20.9775 C   0  0  0  0  0  0  0  0  0  0  0  0
   -1.6481  -20.7957   21.3899 N   0  0  0  0  0  0  0  0  0  0  0  0
   -1.6723  -22.2637   22.8028 C   0  0  0  0  0  0  0  0  0  0  0  0
   -0.7760  -22.0884   23.5970 O   0  0  0  0  0  0  0  0  0  0  0  0
   -3.0894  -24.2563   22.9120 C   0  0  0  0  0  0  0  0  0  0  0  0
   -2.7567  -25.5795   24.3075 C   0  0  0  0  0  0  0  0  0  0  0  0
   -3.4359  -25.6266   25.5538 C   0  0  0  0  0  0  0  0  0  0  0  0
   -4.6664  -24.8546   25.8216 N   0  0  0  0  0  0  0  0  0  0  0  0
   -5.3868  -24.7903   26.9868 C   0  0  0  0  0  0  0  0  0  0  0  0
   -6.4747  -24.0114   26.7288 C   0  0  0  0  0  0  0  0  0  0  0  0
   -6.4964  -23.5672   25.4207 N   0  0  0  0  0  0  0  0  0  0  0  0
   -5.3884  -23.9164   24.7665 C   0  0  0  0  0  0  0  0  0  0  0  0
   -4.8221  -23.9735   23.0262 C   0  0  0  0  0  0  0  0  0  0  0  0
    3.6305  -10.6084   16.1576 H   0  0  0  0  0  0  0  0  0  0  0  0
    3.0144  -12.0463   15.6931 H   0  0  0  0  0  0  0  0  0  0  0  0
    4.4206  -11.9663   15.7486 H   0  0  0  0  0  0  0  0  0  0  0  0
    4.0694  -12.4866   18.5488 H   0  0  0  0  0  0  0  0  0  0  0  0
    2.4079   -9.7818   18.7958 H   0  0  0  0  0  0  0  0  0  0  0  0
    1.8179   -9.7988   17.5180 H   0  0  0  0  0  0  0  0  0  0  0  0
    3.5085   -9.6591   17.5543 H   0  0  0  0  0  0  0  0  0  0  0  0
    4.6462  -14.6950   18.1330 H   0  0  0  0  0  0  0  0  0  0  0  0
    3.4444  -16.1856   18.7025 H   0  0  0  0  0  0  0  0  0  0  0  0
   -0.6099  -16.6261   20.0871 H   0  0  0  0  0  0  0  0  0  0  0  0
    0.4997  -17.8777   19.1251 H   0  0  0  0  0  0  0  0  0  0  0  0
   -0.7142  -19.3661   19.9625 H   0  0  0  0  0  0  0  0  0  0  0  0
   -0.9954  -18.5847   21.6247 H   0  0  0  0  0  0  0  0  0  0  0  0
   -2.3490  -21.0200   20.7022 H   0  0  0  0  0  0  0  0  0  0  0  0
   -1.8969  -26.2267   24.0921 H   0  0  0  0  0  0  0  0  0  0  0  0
   -3.1915  -26.2275   26.3995 H   0  0  0  0  0  0  0  0  0  0  0  0
   -5.0381  -25.2999   27.8662 H   0  0  0  0  0  0  0  0  0  0  0  0
   -7.2751  -23.7492   27.4080 H   0  0  0  0  0  0  0  0  0  0  0  0
   -5.4455  -23.3224   22.4050 H   0  0  0  0  0  0  0  0  0  0  0  0
  1  2  1  0
  2  3  1  0
  2  4  1  0
  4  5  2  0
  5  6  1  0
  6  7  2  0
  7  8  1  0
  8  9  1  0
  9 10  1  0
 10 11  1  0
 11 12  1  0
 12 13  2  0
 12 14  1  0
 14 15  1  0
 15 16  2  0
 16 17  1  0
 17 18  1  0
 18 19  2  0
 19 20  1  0
 20 21  2  0
 21 22  1  0
  8  4  1  0
 22 14  2  0
 21 17  1  0
  1 23  1  0
  1 24  1  0
  1 25  1  0
  2 26  1  0
  3 27  1  0
  3 28  1  0
  3 29  1  0
  6 30  1  0
  7 31  1  0
  9 32  1  0
  9 33  1  0
 10 34  1  0
 10 35  1  0
 11 36  1  0
 15 37  1  0
 16 38  1  0
 18 39  1  0
 19 40  1  0
 22 41  1  0
M  END
>  <Energy>  (972) 
2144.8726435756207

>  <compound_id>  (972) 
36289

>  <target_id>  (972) 
1

>  <reference_id>  (972) 
45

>  <inspiration_ids>  (972) 
[63, 45]

>  <energy_score>  (972) 
2081.842977660748

>  <distance_score>  (972) 
10.91070714910654

>  <path>  (972) 
/opt/xchem-fragalysis-2/maxwin/BulkDock/SCRATCH/511017/C36289-P45/C36289-P45.minimised.mol

>  <scratch_subdir>  (972) 
/opt/xchem-fragalysis-2/maxwin/BulkDock/SCRATCH/511017/C36289-P45

>  <fragmenstein_runtime>  (972) 
21.4670352935791

>  <fragmenstein_outcome>  (972) 
too moved

>  <fragmenstein_mode>  (972) 
expansion

>  <fragmenstein_error>  (972) 


$$$$
C36274-P63
     RDKit          3D

 44 46  0  0  0  0  0  0  0  0999 V2000
    4.7366  -12.8122   20.3733 C   0  0  0  0  0  0  0  0  0  0  0  0
    4.1948  -13.3986   19.0692 C   0  0  0  0  0  0  0  0  0  0  0  0
    3.9031  -12.3680   18.0772 C   0  0  0  0  0  0  0  0  0  0  0  0
    3.3796  -14.5882   18.6990 C   0  0  0  0  0  0  0  0  0  0  0  0
    3.9197  -15.2628   17.7615 N   0  0  0  0  0  0  0  0  0  0  0  0
    2.7810  -15.4053   17.1312 C   0  0  0  0  0  0  0  0  0  0  0  0
    1.8549  -14.4528   17.6120 C   0  0  0  0  0  0  0  0  0  0  0  0
    2.0732  -15.0268   18.7923 N   0  0  0  0  0  0  0  0  0  0  0  0
    0.8619  -16.2206   19.7682 C   0  0  0  0  0  0  0  0  0  0  0  0
   -0.8263  -16.7560   20.2526 C   0  0  0  0  0  0  0  0  0  0  0  0
   -2.0488  -17.5378   19.5305 C   0  0  0  0  0  0  0  0  0  0  0  0
   -1.8350  -17.9871   18.4513 O   0  0  0  0  0  0  0  0  0  0  0  0
   -3.2564  -17.4814   20.2917 N   0  0  0  0  0  0  0  0  0  0  0  0
   -4.6063  -17.8617   19.9527 C   0  0  0  0  0  0  0  0  0  0  0  0
   -5.2768  -18.9401   20.7704 C   0  0  0  0  0  0  0  0  0  0  0  0
   -6.4394  -18.5406   21.5714 C   0  0  0  0  0  0  0  0  0  0  0  0
   -7.3697  -19.4535   21.8968 C   0  0  0  0  0  0  0  0  0  0  0  0
   -7.1532  -20.7855   21.5926 N   0  0  0  0  0  0  0  0  0  0  0  0
   -7.9533  -21.8742   21.8035 C   0  0  0  0  0  0  0  0  0  0  0  0
   -7.2452  -22.9336   21.3011 C   0  0  0  0  0  0  0  0  0  0  0  0
   -6.0547  -22.5318   20.7716 N   0  0  0  0  0  0  0  0  0  0  0  0
   -6.0174  -21.2317   20.9434 C   0  0  0  0  0  0  0  0  0  0  0  0
   -5.0848  -20.2499   20.4954 C   0  0  0  0  0  0  0  0  0  0  0  0
    5.5945  -13.3752   20.6779 H   0  0  0  0  0  0  0  0  0  0  0  0
    3.9889  -12.7891   21.1535 H   0  0  0  0  0  0  0  0  0  0  0  0
    5.3058  -11.8830   20.3075 H   0  0  0  0  0  0  0  0  0  0  0  0
    5.1589  -13.8785   18.9255 H   0  0  0  0  0  0  0  0  0  0  0  0
    4.8696  -11.9411   18.4014 H   0  0  0  0  0  0  0  0  0  0  0  0
    4.0383  -12.0907   17.0345 H   0  0  0  0  0  0  0  0  0  0  0  0
    3.0256  -11.8207   18.1423 H   0  0  0  0  0  0  0  0  0  0  0  0
    2.6921  -16.0970   16.3172 H   0  0  0  0  0  0  0  0  0  0  0  0
    0.9650  -14.0313   17.1979 H   0  0  0  0  0  0  0  0  0  0  0  0
    1.1599  -15.7446   20.6798 H   0  0  0  0  0  0  0  0  0  0  0  0
    0.0866  -15.6508   19.3660 H   0  0  0  0  0  0  0  0  0  0  0  0
   -0.6161  -17.2962   21.1757 H   0  0  0  0  0  0  0  0  0  0  0  0
   -1.4196  -15.8445   20.2990 H   0  0  0  0  0  0  0  0  0  0  0  0
   -3.0494  -17.0977   21.2145 H   0  0  0  0  0  0  0  0  0  0  0  0
   -4.5950  -18.1693   18.8988 H   0  0  0  0  0  0  0  0  0  0  0  0
   -5.1942  -16.9364   19.9798 H   0  0  0  0  0  0  0  0  0  0  0  0
   -6.5834  -17.4920   21.8099 H   0  0  0  0  0  0  0  0  0  0  0  0
   -8.2983  -19.2016   22.3892 H   0  0  0  0  0  0  0  0  0  0  0  0
   -8.9323  -21.8105   22.2512 H   0  0  0  0  0  0  0  0  0  0  0  0
   -7.5528  -23.9598   21.2522 H   0  0  0  0  0  0  0  0  0  0  0  0
   -4.3084  -20.5645   19.8039 H   0  0  0  0  0  0  0  0  0  0  0  0
  1  2  1  0
  2  3  1  0
  2  4  1  0
  4  5  2  0
  5  6  1  0
  6  7  2  0
  7  8  1  0
  8  9  1  0
  9 10  1  0
 10 11  1  0
 11 12  2  0
 11 13  1  0
 13 14  1  0
 14 15  1  0
 15 16  1  0
 16 17  2  0
 17 18  1  0
 18 19  1  0
 19 20  2  0
 20 21  1  0
 21 22  2  0
 22 23  1  0
  8  4  1  0
 23 15  2  0
 22 18  1  0
  1 24  1  0
  1 25  1  0
  1 26  1  0
  2 27  1  0
  3 28  1  0
  3 29  1  0
  3 30  1  0
  6 31  1  0
  7 32  1  0
  9 33  1  0
  9 34  1  0
 10 35  1  0
 10 36  1  0
 13 37  1  0
 14 38  1  0
 14 39  1  0
 16 40  1  0
 17 41  1  0
 19 42  1  0
 20 43  1  0
 23 44  1  0
M  END
>  <Energy>  (973) 
378.32622726892384

>  <compound_id>  (973) 
36274

>  <target_id>  (973) 
1

>  <reference_id>  (973) 
63

>  <inspiration_ids>  (973) 
[63, 45]

>  <energy_score>  (973) 
348.44823395905405

>  <distance_score>  (973) 
12.72440913998175

>  <path>  (973) 
/opt/xchem-fragalysis-2/maxwin/BulkDock/SCRATCH/511017/C36274-P63/C36274-P63.minimised.mol

>  <scratch_subdir>  (973) 
/opt/xchem-fragalysis-2/maxwin/BulkDock/SCRATCH/511017/C36274-P63

>  <fragmenstein_runtime>  (973) 
46.2007737159729

>  <fragmenstein_outcome>  (973) 
too moved

>  <fragmenstein_mode>  (973) 
expansion

>  <fragmenstein_error>  (973) 


$$$$
C36274-P45
     RDKit          3D

 44 46  0  0  0  0  0  0  0  0999 V2000
    1.0876   -5.5254   15.2837 C   0  0  0  0  0  0  0  0  0  0  0  0
    1.8407   -6.8667   15.1933 C   0  0  0  0  0  0  0  0  0  0  0  0
    2.8132   -6.7894   14.0245 C   0  0  0  0  0  0  0  0  0  0  0  0
    2.5067   -7.2258   16.5231 C   0  0  0  0  0  0  0  0  0  0  0  0
    2.8925   -6.2477   17.3283 N   0  0  0  0  0  0  0  0  0  0  0  0
    2.0049   -6.3869   18.3493 C   0  0  0  0  0  0  0  0  0  0  0  0
    1.4381   -7.6522   18.3229 C   0  0  0  0  0  0  0  0  0  0  0  0
    2.1520   -8.3510   17.3467 N   0  0  0  0  0  0  0  0  0  0  0  0
    2.8808   -9.8082   17.6424 C   0  0  0  0  0  0  0  0  0  0  0  0
    3.3043  -11.7309   17.2400 C   0  0  0  0  0  0  0  0  0  0  0  0
    3.1166  -13.5552   18.1935 C   0  0  0  0  0  0  0  0  0  0  0  0
    4.1288  -13.8003   18.8229 O   0  0  0  0  0  0  0  0  0  0  0  0
    1.6230  -14.4148   18.1551 N   0  0  0  0  0  0  0  0  0  0  0  0
    0.9666  -16.0196   19.2682 C   0  0  0  0  0  0  0  0  0  0  0  0
   -0.7193  -16.5321   20.0651 C   0  0  0  0  0  0  0  0  0  0  0  0
   -2.0583  -16.0773   19.5043 C   0  0  0  0  0  0  0  0  0  0  0  0
   -3.1866  -16.8005   19.6854 C   0  0  0  0  0  0  0  0  0  0  0  0
   -3.1706  -17.9342   20.4916 N   0  0  0  0  0  0  0  0  0  0  0  0
   -4.2232  -18.6720   20.9686 C   0  0  0  0  0  0  0  0  0  0  0  0
   -3.6784  -19.4629   21.9482 C   0  0  0  0  0  0  0  0  0  0  0  0
   -2.3129  -19.3502   21.9828 N   0  0  0  0  0  0  0  0  0  0  0  0
   -2.0215  -18.4054   21.1048 C   0  0  0  0  0  0  0  0  0  0  0  0
   -0.7869  -17.6786   20.8177 C   0  0  0  0  0  0  0  0  0  0  0  0
    1.7684   -4.6900   15.4831 H   0  0  0  0  0  0  0  0  0  0  0  0
    0.3342   -5.5462   16.0786 H   0  0  0  0  0  0  0  0  0  0  0  0
    0.5640   -5.3122   14.3450 H   0  0  0  0  0  0  0  0  0  0  0  0
    1.0689   -7.5947   14.9859 H   0  0  0  0  0  0  0  0  0  0  0  0
    2.3025   -6.4595   13.1127 H   0  0  0  0  0  0  0  0  0  0  0  0
    3.6196   -6.0790   14.2287 H   0  0  0  0  0  0  0  0  0  0  0  0
    3.2581   -7.7601   13.7979 H   0  0  0  0  0  0  0  0  0  0  0  0
    1.8530   -5.6101   19.0879 H   0  0  0  0  0  0  0  0  0  0  0  0
    0.7668   -8.1409   19.0118 H   0  0  0  0  0  0  0  0  0  0  0  0
    3.8414   -9.3679   17.8445 H   0  0  0  0  0  0  0  0  0  0  0  0
    2.3402   -9.8257   18.5639 H   0  0  0  0  0  0  0  0  0  0  0  0
    3.6181  -11.6618   16.1919 H   0  0  0  0  0  0  0  0  0  0  0  0
    4.2152  -11.8527   17.7296 H   0  0  0  0  0  0  0  0  0  0  0  0
    1.0045  -13.9979   17.4643 H   0  0  0  0  0  0  0  0  0  0  0  0
    1.3164  -15.7837   20.3270 H   0  0  0  0  0  0  0  0  0  0  0  0
    1.1808  -17.0882   18.8124 H   0  0  0  0  0  0  0  0  0  0  0  0
   -2.0910  -15.1633   18.9207 H   0  0  0  0  0  0  0  0  0  0  0  0
   -4.1474  -16.4980   19.2884 H   0  0  0  0  0  0  0  0  0  0  0  0
   -5.2413  -18.5013   20.6544 H   0  0  0  0  0  0  0  0  0  0  0  0
   -4.2139  -20.0945   22.6340 H   0  0  0  0  0  0  0  0  0  0  0  0
    0.0955  -18.0906   21.2639 H   0  0  0  0  0  0  0  0  0  0  0  0
  1  2  1  0
  2  3  1  0
  2  4  1  0
  4  5  2  0
  5  6  1  0
  6  7  2  0
  7  8  1  0
  8  9  1  0
  9 10  1  0
 10 11  1  0
 11 12  2  0
 11 13  1  0
 13 14  1  0
 14 15  1  0
 15 16  1  0
 16 17  2  0
 17 18  1  0
 18 19  1  0
 19 20  2  0
 20 21  1  0
 21 22  2  0
 22 23  1  0
  8  4  1  0
 23 15  2  0
 22 18  1  0
  1 24  1  0
  1 25  1  0
  1 26  1  0
  2 27  1  0
  3 28  1  0
  3 29  1  0
  3 30  1  0
  6 31  1  0
  7 32  1  0
  9 33  1  0
  9 34  1  0
 10 35  1  0
 10 36  1  0
 13 37  1  0
 14 38  1  0
 14 39  1  0
 16 40  1  0
 17 41  1  0
 19 42  1  0
 20 43  1  0
 23 44  1  0
M  END
>  <Energy>  (974) 
478.86610062785684

>  <compound_id>  (974) 
36274

>  <target_id>  (974) 
1

>  <reference_id>  (974) 
45

>  <inspiration_ids>  (974) 
[63, 45]

>  <energy_score>  (974) 
448.9881073179754

>  <distance_score>  (974) 
13.007609033405286

>  <path>  (974) 
/opt/xchem-fragalysis-2/maxwin/BulkDock/SCRATCH/511017/C36274-P45/C36274-P45.minimised.mol

>  <scratch_subdir>  (974) 
/opt/xchem-fragalysis-2/maxwin/BulkDock/SCRATCH/511017/C36274-P45

>  <fragmenstein_runtime>  (974) 
38.61670923233032

>  <fragmenstein_outcome>  (974) 
too moved

>  <fragmenstein_mode>  (974) 
expansion

>  <fragmenstein_error>  (974) 


$$$$
C36279-P63
     RDKit          3D

 31 33  0  0  0  0  0  0  0  0999 V2000
   -4.9661   -9.4795   25.3221 O   0  0  0  0  0  0  0  0  0  0  0  0
   -3.9564  -10.1667   25.4450 C   0  0  0  0  0  0  0  0  0  0  0  0
   -2.6953   -9.6943   25.1268 O   0  0  0  0  0  0  0  0  0  0  0  0
   -2.6671   -8.3222   24.5967 C   0  0  0  0  0  0  0  0  0  0  0  0
   -1.3595   -7.9432   23.8448 C   0  0  0  0  0  0  0  0  0  0  0  0
   -1.1692   -8.0365   22.5343 N   0  0  0  0  0  0  0  0  0  0  0  0
   -0.0267   -7.3324   22.2233 C   0  0  0  0  0  0  0  0  0  0  0  0
    0.5332   -6.8191   23.3660 C   0  0  0  0  0  0  0  0  0  0  0  0
   -0.2999   -7.2283   24.3874 N   0  0  0  0  0  0  0  0  0  0  0  0
   -0.1444   -6.8889   25.7901 C   0  0  0  0  0  0  0  0  0  0  0  0
    1.1599   -6.6695   26.0985 F   0  0  0  0  0  0  0  0  0  0  0  0
   -0.5645   -7.9046   26.5870 F   0  0  0  0  0  0  0  0  0  0  0  0
   -4.0667  -11.6215   25.9159 C   0  0  0  0  0  0  0  0  0  0  0  0
   -5.3453  -12.3568   25.6907 C   0  0  0  0  0  0  0  0  0  0  0  0
   -5.5185  -13.6202   26.1318 C   0  0  0  0  0  0  0  0  0  0  0  0
   -4.4906  -14.2307   26.8319 N   0  0  0  0  0  0  0  0  0  0  0  0
   -4.4445  -15.4508   27.4563 C   0  0  0  0  0  0  0  0  0  0  0  0
   -3.1904  -15.5202   28.0140 C   0  0  0  0  0  0  0  0  0  0  0  0
   -2.4744  -14.3860   27.7636 N   0  0  0  0  0  0  0  0  0  0  0  0
   -3.2711  -13.6099   27.0646 C   0  0  0  0  0  0  0  0  0  0  0  0
   -3.0840  -12.2720   26.5820 C   0  0  0  0  0  0  0  0  0  0  0  0
   -2.8264   -7.6332   25.4327 H   0  0  0  0  0  0  0  0  0  0  0  0
   -3.4856   -8.1997   23.8766 H   0  0  0  0  0  0  0  0  0  0  0  0
    0.3182   -7.2529   21.1986 H   0  0  0  0  0  0  0  0  0  0  0  0
    1.4165   -6.2199   23.5439 H   0  0  0  0  0  0  0  0  0  0  0  0
   -0.7280   -5.9881   26.0003 H   0  0  0  0  0  0  0  0  0  0  0  0
   -6.1378  -11.8358   25.1588 H   0  0  0  0  0  0  0  0  0  0  0  0
   -6.4349  -14.1813   25.9934 H   0  0  0  0  0  0  0  0  0  0  0  0
   -5.2937  -16.1183   27.4707 H   0  0  0  0  0  0  0  0  0  0  0  0
   -2.7386  -16.3031   28.6006 H   0  0  0  0  0  0  0  0  0  0  0  0
   -2.1373  -11.7960   26.8109 H   0  0  0  0  0  0  0  0  0  0  0  0
  1  2  2  0
  2  3  1  0
  3  4  1  0
  4  5  1  0
  5  6  2  0
  6  7  1  0
  7  8  2  0
  8  9  1  0
  9 10  1  0
 10 11  1  0
 10 12  1  0
  2 13  1  0
 13 14  1  0
 14 15  2  0
 15 16  1  0
 16 17  1  0
 17 18  2  0
 18 19  1  0
 19 20  2  0
 20 21  1  0
  9  5  1  0
 21 13  2  0
 20 16  1  0
  4 22  1  0
  4 23  1  0
  7 24  1  0
  8 25  1  0
 10 26  1  0
 14 27  1  0
 15 28  1  0
 17 29  1  0
 18 30  1  0
 21 31  1  0
M  END
>  <Energy>  (975) 
52.692306195877251

>  <compound_id>  (975) 
36279

>  <target_id>  (975) 
1

>  <reference_id>  (975) 
63

>  <inspiration_ids>  (975) 
[63, 45]

>  <energy_score>  (975) 
-19.63589966518373

>  <distance_score>  (975) 
15.122901884880337

>  <path>  (975) 
/opt/xchem-fragalysis-2/maxwin/BulkDock/SCRATCH/511017/C36279-P63/C36279-P63.minimised.mol

>  <scratch_subdir>  (975) 
/opt/xchem-fragalysis-2/maxwin/BulkDock/SCRATCH/511017/C36279-P63

>  <fragmenstein_runtime>  (975) 
26.32510781288147

>  <fragmenstein_outcome>  (975) 
too moved

>  <fragmenstein_mode>  (975) 
expansion

>  <fragmenstein_error>  (975) 


$$$$
C36279-P45
     RDKit          3D

 31 33  0  0  0  0  0  0  0  0999 V2000
   -1.9990  -15.8766   19.7185 O   0  0  0  0  0  0  0  0  0  0  0  0
   -1.6034  -17.0156   19.9019 C   0  0  0  0  0  0  0  0  0  0  0  0
   -0.2437  -17.2131   20.0561 O   0  0  0  0  0  0  0  0  0  0  0  0
    0.9005  -15.9938   20.2938 C   0  0  0  0  0  0  0  0  0  0  0  0
    2.4295  -14.8814   19.5137 C   0  0  0  0  0  0  0  0  0  0  0  0
    2.0050  -14.6069   18.1754 N   0  0  0  0  0  0  0  0  0  0  0  0
    2.8957  -15.2647   17.5069 C   0  0  0  0  0  0  0  0  0  0  0  0
    4.0746  -14.9863   18.0878 C   0  0  0  0  0  0  0  0  0  0  0  0
    3.6695  -13.9851   18.8440 N   0  0  0  0  0  0  0  0  0  0  0  0
    4.7504  -13.1860   19.6463 C   0  0  0  0  0  0  0  0  0  0  0  0
    4.3549  -12.7612   20.8572 F   0  0  0  0  0  0  0  0  0  0  0  0
    5.4955  -12.1852   19.0966 F   0  0  0  0  0  0  0  0  0  0  0  0
   -2.6470  -18.1651   19.8843 C   0  0  0  0  0  0  0  0  0  0  0  0
   -3.8868  -17.9032   20.6388 C   0  0  0  0  0  0  0  0  0  0  0  0
   -4.8968  -18.7800   20.7637 C   0  0  0  0  0  0  0  0  0  0  0  0
   -4.8104  -19.9727   20.0895 N   0  0  0  0  0  0  0  0  0  0  0  0
   -5.6964  -21.0165   20.0476 C   0  0  0  0  0  0  0  0  0  0  0  0
   -5.1473  -21.9097   19.1600 C   0  0  0  0  0  0  0  0  0  0  0  0
   -3.9345  -21.4523   18.6936 N   0  0  0  0  0  0  0  0  0  0  0  0
   -3.7515  -20.2664   19.2436 C   0  0  0  0  0  0  0  0  0  0  0  0
   -2.6998  -19.2787   19.1070 C   0  0  0  0  0  0  0  0  0  0  0  0
    0.6846  -15.6345   21.2996 H   0  0  0  0  0  0  0  0  0  0  0  0
    1.1971  -16.8283   20.7979 H   0  0  0  0  0  0  0  0  0  0  0  0
    2.6742  -15.8704   16.6469 H   0  0  0  0  0  0  0  0  0  0  0  0
    4.8434  -15.5911   18.4945 H   0  0  0  0  0  0  0  0  0  0  0  0
    5.5717  -13.8702   19.7557 H   0  0  0  0  0  0  0  0  0  0  0  0
   -3.9577  -16.9230   21.0940 H   0  0  0  0  0  0  0  0  0  0  0  0
   -5.7952  -18.5787   21.3321 H   0  0  0  0  0  0  0  0  0  0  0  0
   -6.6155  -21.0256   20.6143 H   0  0  0  0  0  0  0  0  0  0  0  0
   -5.5447  -22.8649   18.8402 H   0  0  0  0  0  0  0  0  0  0  0  0
   -1.9632  -19.4728   18.3383 H   0  0  0  0  0  0  0  0  0  0  0  0
  1  2  2  0
  2  3  1  0
  3  4  1  0
  4  5  1  0
  5  6  2  0
  6  7  1  0
  7  8  2  0
  8  9  1  0
  9 10  1  0
 10 11  1  0
 10 12  1  0
  2 13  1  0
 13 14  1  0
 14 15  2  0
 15 16  1  0
 16 17  1  0
 17 18  2  0
 18 19  1  0
 19 20  2  0
 20 21  1  0
  9  5  1  0
 21 13  2  0
 20 16  1  0
  4 22  1  0
  4 23  1  0
  7 24  1  0
  8 25  1  0
 10 26  1  0
 14 27  1  0
 15 28  1  0
 17 29  1  0
 18 30  1  0
 21 31  1  0
M  END
>  <Energy>  (976) 
441.27550346138167

>  <compound_id>  (976) 
36279

>  <target_id>  (976) 
1

>  <reference_id>  (976) 
45

>  <inspiration_ids>  (976) 
[63, 45]

>  <energy_score>  (976) 
368.94729760030873

>  <distance_score>  (976) 
13.552221934028303

>  <path>  (976) 
/opt/xchem-fragalysis-2/maxwin/BulkDock/SCRATCH/511017/C36279-P45/C36279-P45.minimised.mol

>  <scratch_subdir>  (976) 
/opt/xchem-fragalysis-2/maxwin/BulkDock/SCRATCH/511017/C36279-P45

>  <fragmenstein_runtime>  (976) 
12.830559253692627

>  <fragmenstein_outcome>  (976) 
too moved

>  <fragmenstein_mode>  (976) 
expansion

>  <fragmenstein_error>  (976) 


$$$$
C36287-P63
     RDKit          3D

 39 42  0  0  0  0  0  0  0  0999 V2000
    0.4649  -18.8085   21.8466 O   0  0  0  0  0  0  0  0  0  0  0  0
   -0.5807  -18.3469   21.8958 C   0  0  0  0  0  0  0  0  0  0  0  0
   -1.9363  -19.7168   22.9189 C   0  0  0  0  0  0  0  0  0  0  0  0
   -3.6892  -20.0737   23.6871 C   0  0  0  0  0  0  0  0  0  0  0  0
   -5.1301  -20.6155   23.2764 C   0  0  0  0  0  0  0  0  0  0  0  0
   -5.2092  -21.6023   24.3047 N   0  0  0  0  0  0  0  0  0  0  0  0
   -5.6754  -23.2180   24.7665 C   0  0  0  0  0  0  0  0  0  0  0  0
   -5.7689  -22.8202   26.2047 C   0  0  0  0  0  0  0  0  0  0  0  0
   -4.8502  -21.4127   26.2994 N   0  0  0  0  0  0  0  0  0  0  0  0
   -4.2839  -21.1145   25.0613 C   0  0  0  0  0  0  0  0  0  0  0  0
   -2.6062  -20.7925   23.9889 C   0  0  0  0  0  0  0  0  0  0  0  0
   -0.4811  -16.7670   21.3025 N   0  0  0  0  0  0  0  0  0  0  0  0
    0.5757  -15.9679   20.9004 C   0  0  0  0  0  0  0  0  0  0  0  0
    2.0990  -14.8413   20.3882 C   0  0  0  0  0  0  0  0  0  0  0  0
    2.7376  -14.7828   18.8644 C   0  0  0  0  0  0  0  0  0  0  0  0
    4.1560  -13.4635   19.2438 C   0  0  0  0  0  0  0  0  0  0  0  0
    4.4006  -12.7245   20.4325 C   0  0  0  0  0  0  0  0  0  0  0  0
    5.5675  -11.9988   20.3825 N   0  0  0  0  0  0  0  0  0  0  0  0
    6.3610  -12.8207   19.7519 C   0  0  0  0  0  0  0  0  0  0  0  0
    5.5973  -13.7408   19.1739 N   0  0  0  0  0  0  0  0  0  0  0  0
    1.1122  -15.9459   18.9886 C   0  0  0  0  0  0  0  0  0  0  0  0
   -0.6718  -16.5297   19.9161 C   0  0  0  0  0  0  0  0  0  0  0  0
   -4.2133  -19.2977   24.3801 H   0  0  0  0  0  0  0  0  0  0  0  0
   -5.5252  -20.9420   22.3081 H   0  0  0  0  0  0  0  0  0  0  0  0
   -6.1243  -23.8329   23.9957 H   0  0  0  0  0  0  0  0  0  0  0  0
   -6.2471  -23.0541   27.1368 H   0  0  0  0  0  0  0  0  0  0  0  0
   -1.7410  -21.4266   24.1531 H   0  0  0  0  0  0  0  0  0  0  0  0
    1.0502  -16.8937   20.8254 H   0  0  0  0  0  0  0  0  0  0  0  0
    0.4858  -15.4251   21.8303 H   0  0  0  0  0  0  0  0  0  0  0  0
    2.6687  -15.5353   20.6373 H   0  0  0  0  0  0  0  0  0  0  0  0
    2.7057  -14.2495   21.0329 H   0  0  0  0  0  0  0  0  0  0  0  0
    2.3507  -14.0919   18.1269 H   0  0  0  0  0  0  0  0  0  0  0  0
    3.8143  -12.6691   21.3286 H   0  0  0  0  0  0  0  0  0  0  0  0
    5.8565  -11.2582   20.9989 H   0  0  0  0  0  0  0  0  0  0  0  0
    7.4346  -12.7709   19.8473 H   0  0  0  0  0  0  0  0  0  0  0  0
    0.9508  -14.9136   18.2162 H   0  0  0  0  0  0  0  0  0  0  0  0
    1.3605  -17.0049   18.4908 H   0  0  0  0  0  0  0  0  0  0  0  0
   -1.4600  -15.7745   19.7079 H   0  0  0  0  0  0  0  0  0  0  0  0
   -1.0829  -17.4489   19.4693 H   0  0  0  0  0  0  0  0  0  0  0  0
  1  2  2  0
  2  3  1  0
  3  4  1  0
  4  5  2  0
  5  6  1  0
  6  7  1  0
  7  8  2  0
  8  9  1  0
  9 10  2  0
 10 11  1  0
  2 12  1  0
 12 13  1  0
 13 14  1  0
 14 15  1  0
 15 16  1  0
 16 17  2  0
 17 18  1  0
 18 19  1  0
 19 20  2  0
 15 21  1  0
 21 22  1  0
 11  3  2  0
 22 12  1  0
 10  6  1  0
 20 16  1  0
  4 23  1  0
  5 24  1  0
  7 25  1  0
  8 26  1  0
 11 27  1  0
 13 28  1  0
 13 29  1  0
 14 30  1  0
 14 31  1  0
 15 32  1  0
 17 33  1  0
 18 34  1  0
 19 35  1  0
 21 36  1  0
 21 37  1  0
 22 38  1  0
 22 39  1  0
M  END
>  <Energy>  (977) 
1743.8229329000271

>  <compound_id>  (977) 
36287

>  <target_id>  (977) 
1

>  <reference_id>  (977) 
63

>  <inspiration_ids>  (977) 
[63, 45]

>  <energy_score>  (977) 
1699.5531294033324

>  <distance_score>  (977) 
11.534600546827887

>  <path>  (977) 
/opt/xchem-fragalysis-2/maxwin/BulkDock/SCRATCH/511017/C36287-P63/C36287-P63.minimised.mol

>  <scratch_subdir>  (977) 
/opt/xchem-fragalysis-2/maxwin/BulkDock/SCRATCH/511017/C36287-P63

>  <fragmenstein_runtime>  (977) 
25.490644454956055

>  <fragmenstein_outcome>  (977) 
too moved

>  <fragmenstein_mode>  (977) 
expansion

>  <fragmenstein_error>  (977) 


$$$$
C36287-P45
     RDKit          3D

 39 42  0  0  0  0  0  0  0  0999 V2000
    9.0360  -23.2502   19.1148 O   0  0  0  0  0  0  0  0  0  0  0  0
    8.3542  -22.2799   19.3595 C   0  0  0  0  0  0  0  0  0  0  0  0
    6.8551  -22.7350   19.6928 C   0  0  0  0  0  0  0  0  0  0  0  0
    6.7690  -23.5577   20.9471 C   0  0  0  0  0  0  0  0  0  0  0  0
    5.7062  -24.3354   21.2314 C   0  0  0  0  0  0  0  0  0  0  0  0
    4.6147  -24.3237   20.3786 N   0  0  0  0  0  0  0  0  0  0  0  0
    3.4319  -25.0291   20.4432 C   0  0  0  0  0  0  0  0  0  0  0  0
    2.6434  -24.4976   19.4511 C   0  0  0  0  0  0  0  0  0  0  0  0
    3.3447  -23.5656   18.7202 N   0  0  0  0  0  0  0  0  0  0  0  0
    4.5500  -23.4995   19.2619 C   0  0  0  0  0  0  0  0  0  0  0  0
    5.7617  -22.7902   18.8815 C   0  0  0  0  0  0  0  0  0  0  0  0
    8.7271  -20.8631   19.4872 N   0  0  0  0  0  0  0  0  0  0  0  0
   10.0939  -20.1937   19.4651 C   0  0  0  0  0  0  0  0  0  0  0  0
   10.3109  -18.6667   19.6430 C   0  0  0  0  0  0  0  0  0  0  0  0
   10.0099  -17.9714   18.3223 C   0  0  0  0  0  0  0  0  0  0  0  0
   10.2280  -16.4488   18.2456 C   0  0  0  0  0  0  0  0  0  0  0  0
   10.5688  -15.5170   19.2125 C   0  0  0  0  0  0  0  0  0  0  0  0
   10.7809  -14.3252   18.5592 N   0  0  0  0  0  0  0  0  0  0  0  0
   10.6091  -14.5570   17.2288 C   0  0  0  0  0  0  0  0  0  0  0  0
   10.2600  -15.8077   17.0097 N   0  0  0  0  0  0  0  0  0  0  0  0
    8.6223  -18.5421   18.0053 C   0  0  0  0  0  0  0  0  0  0  0  0
    8.6087  -20.1412   18.1060 C   0  0  0  0  0  0  0  0  0  0  0  0
    7.6422  -23.5573   21.5945 H   0  0  0  0  0  0  0  0  0  0  0  0
    5.6516  -24.9632   22.1112 H   0  0  0  0  0  0  0  0  0  0  0  0
    3.2492  -25.7736   21.2031 H   0  0  0  0  0  0  0  0  0  0  0  0
    1.6195  -24.7456   19.2041 H   0  0  0  0  0  0  0  0  0  0  0  0
    5.7835  -22.3862   17.8772 H   0  0  0  0  0  0  0  0  0  0  0  0
   10.7669  -20.6388   18.7114 H   0  0  0  0  0  0  0  0  0  0  0  0
   10.5232  -20.6175   20.3875 H   0  0  0  0  0  0  0  0  0  0  0  0
    9.6813  -18.2899   20.4540 H   0  0  0  0  0  0  0  0  0  0  0  0
   11.3532  -18.4815   19.9297 H   0  0  0  0  0  0  0  0  0  0  0  0
   10.7055  -18.3787   17.5726 H   0  0  0  0  0  0  0  0  0  0  0  0
   10.7313  -15.6095   20.2756 H   0  0  0  0  0  0  0  0  0  0  0  0
   11.0783  -13.4533   18.9743 H   0  0  0  0  0  0  0  0  0  0  0  0
   10.7478  -13.7935   16.4744 H   0  0  0  0  0  0  0  0  0  0  0  0
    8.3291  -18.2601   16.9876 H   0  0  0  0  0  0  0  0  0  0  0  0
    7.8765  -18.1329   18.6963 H   0  0  0  0  0  0  0  0  0  0  0  0
    7.6541  -20.4695   17.6905 H   0  0  0  0  0  0  0  0  0  0  0  0
    9.3036  -20.5842   17.3693 H   0  0  0  0  0  0  0  0  0  0  0  0
  1  2  2  0
  2  3  1  0
  3  4  1  0
  4  5  2  0
  5  6  1  0
  6  7  1  0
  7  8  2  0
  8  9  1  0
  9 10  2  0
 10 11  1  0
  2 12  1  0
 12 13  1  0
 13 14  1  0
 14 15  1  0
 15 16  1  0
 16 17  2  0
 17 18  1  0
 18 19  1  0
 19 20  2  0
 15 21  1  0
 21 22  1  0
 11  3  2  0
 22 12  1  0
 10  6  1  0
 20 16  1  0
  4 23  1  0
  5 24  1  0
  7 25  1  0
  8 26  1  0
 11 27  1  0
 13 28  1  0
 13 29  1  0
 14 30  1  0
 14 31  1  0
 15 32  1  0
 17 33  1  0
 18 34  1  0
 19 35  1  0
 21 36  1  0
 21 37  1  0
 22 38  1  0
 22 39  1  0
M  END
>  <Energy>  (978) 
112.46759773324543

>  <compound_id>  (978) 
36287

>  <target_id>  (978) 
1

>  <reference_id>  (978) 
45

>  <inspiration_ids>  (978) 
[63, 45]

>  <energy_score>  (978) 
68.19779423655177

>  <distance_score>  (978) 
15.042906722851148

>  <path>  (978) 
/opt/xchem-fragalysis-2/maxwin/BulkDock/SCRATCH/511017/C36287-P45/C36287-P45.minimised.mol

>  <scratch_subdir>  (978) 
/opt/xchem-fragalysis-2/maxwin/BulkDock/SCRATCH/511017/C36287-P45

>  <fragmenstein_runtime>  (978) 
33.65181303024292

>  <fragmenstein_outcome>  (978) 
too moved

>  <fragmenstein_mode>  (978) 
expansion

>  <fragmenstein_error>  (978) 


$$$$
C33145-P63
     RDKit          3D

 39 42  0  0  0  0  0  0  0  0999 V2000
    0.9574  -16.7161   20.3963 O   0  0  0  0  0  0  0  0  0  0  0  0
    0.6167  -15.9607   19.5605 C   0  0  0  0  0  0  0  0  0  0  0  0
   -1.3492  -15.9512   19.4706 C   0  0  0  0  0  0  0  0  0  0  0  0
   -1.7360  -17.2903   20.0217 C   0  0  0  0  0  0  0  0  0  0  0  0
   -2.9527  -17.8449   20.0543 C   0  0  0  0  0  0  0  0  0  0  0  0
   -3.9967  -17.0198   19.7598 N   0  0  0  0  0  0  0  0  0  0  0  0
   -5.3353  -17.2455   19.9296 C   0  0  0  0  0  0  0  0  0  0  0  0
   -5.9256  -16.0393   19.6537 C   0  0  0  0  0  0  0  0  0  0  0  0
   -4.9873  -15.0981   19.2869 N   0  0  0  0  0  0  0  0  0  0  0  0
   -3.8123  -15.6994   19.3613 C   0  0  0  0  0  0  0  0  0  0  0  0
   -2.4497  -15.2099   19.1377 C   0  0  0  0  0  0  0  0  0  0  0  0
    1.6817  -14.6951   18.4565 N   0  0  0  0  0  0  0  0  0  0  0  0
    2.2543  -14.8692   17.2619 C   0  0  0  0  0  0  0  0  0  0  0  0
    2.8106  -16.0299   16.5970 C   0  0  0  0  0  0  0  0  0  0  0  0
    4.3953  -15.7090   16.6522 C   0  0  0  0  0  0  0  0  0  0  0  0
    4.3902  -15.2477   18.0758 C   0  0  0  0  0  0  0  0  0  0  0  0
    3.3634  -14.3379   18.6084 C   0  0  0  0  0  0  0  0  0  0  0  0
    4.4405  -13.0121   19.5895 C   0  0  0  0  0  0  0  0  0  0  0  0
    4.4232  -12.5630   20.8571 N   0  0  0  0  0  0  0  0  0  0  0  0
    5.4098  -11.4724   21.0548 C   0  0  0  0  0  0  0  0  0  0  0  0
    6.3650  -11.5666   20.1571 C   0  0  0  0  0  0  0  0  0  0  0  0
    5.6430  -12.3204   19.2630 N   0  0  0  0  0  0  0  0  0  0  0  0
   -0.9690  -17.7119   20.6440 H   0  0  0  0  0  0  0  0  0  0  0  0
   -3.1647  -18.8037   20.5042 H   0  0  0  0  0  0  0  0  0  0  0  0
   -5.7300  -18.1972   20.2518 H   0  0  0  0  0  0  0  0  0  0  0  0
   -6.9780  -15.7903   19.6896 H   0  0  0  0  0  0  0  0  0  0  0  0
   -2.3744  -14.2192   18.7125 H   0  0  0  0  0  0  0  0  0  0  0  0
    1.4518  -14.7919   16.5229 H   0  0  0  0  0  0  0  0  0  0  0  0
    1.7695  -13.8722   17.1165 H   0  0  0  0  0  0  0  0  0  0  0  0
    2.3316  -16.9540   17.0349 H   0  0  0  0  0  0  0  0  0  0  0  0
    2.9339  -16.5599   15.6921 H   0  0  0  0  0  0  0  0  0  0  0  0
    4.9031  -15.8982   15.6935 H   0  0  0  0  0  0  0  0  0  0  0  0
    5.1029  -16.5898   16.5743 H   0  0  0  0  0  0  0  0  0  0  0  0
    5.0717  -14.5030   18.1435 H   0  0  0  0  0  0  0  0  0  0  0  0
    4.7240  -15.9927   18.7695 H   0  0  0  0  0  0  0  0  0  0  0  0
    2.8862  -14.5317   19.5712 H   0  0  0  0  0  0  0  0  0  0  0  0
    5.3359  -10.7785   21.8958 H   0  0  0  0  0  0  0  0  0  0  0  0
    7.2295  -10.9562   19.9397 H   0  0  0  0  0  0  0  0  0  0  0  0
    5.6240  -11.8111   18.4375 H   0  0  0  0  0  0  0  0  0  0  0  0
  1  2  2  0
  2  3  1  0
  3  4  1  0
  4  5  2  0
  5  6  1  0
  6  7  1  0
  7  8  2  0
  8  9  1  0
  9 10  2  0
 10 11  1  0
  2 12  1  0
 12 13  1  0
 13 14  1  0
 14 15  1  0
 15 16  1  0
 16 17  1  0
 17 18  1  0
 18 19  2  0
 19 20  1  0
 20 21  2  0
 21 22  1  0
 11  3  2  0
 17 12  1  0
 22 18  1  0
 10  6  1  0
  4 23  1  0
  5 24  1  0
  7 25  1  0
  8 26  1  0
 11 27  1  0
 13 28  1  0
 13 29  1  0
 14 30  1  0
 14 31  1  0
 15 32  1  0
 15 33  1  0
 16 34  1  0
 16 35  1  0
 17 36  1  0
 20 37  1  0
 21 38  1  0
 22 39  1  0
M  END
>  <Energy>  (979) 
685.36465567927041

>  <compound_id>  (979) 
33145

>  <target_id>  (979) 
1

>  <reference_id>  (979) 
63

>  <inspiration_ids>  (979) 
[63, 45]

>  <energy_score>  (979) 
607.0962527303097

>  <distance_score>  (979) 
13.796812395148194

>  <path>  (979) 
/opt/xchem-fragalysis-2/maxwin/BulkDock/SCRATCH/511017/C33145-P63/C33145-P63.minimised.mol

>  <scratch_subdir>  (979) 
/opt/xchem-fragalysis-2/maxwin/BulkDock/SCRATCH/511017/C33145-P63

>  <fragmenstein_runtime>  (979) 
20.82649803161621

>  <fragmenstein_outcome>  (979) 
too moved

>  <fragmenstein_mode>  (979) 
expansion

>  <fragmenstein_error>  (979) 


$$$$
C33145-P45
     RDKit          3D

 39 42  0  0  0  0  0  0  0  0999 V2000
   -1.3189  -22.1199   21.1024 O   0  0  0  0  0  0  0  0  0  0  0  0
   -1.1489  -22.4711   22.3960 C   0  0  0  0  0  0  0  0  0  0  0  0
   -2.7870  -24.3080   22.8159 C   0  0  0  0  0  0  0  0  0  0  0  0
   -1.9529  -26.0169   22.2396 C   0  0  0  0  0  0  0  0  0  0  0  0
   -1.5081  -27.0282   23.2240 C   0  0  0  0  0  0  0  0  0  0  0  0
   -2.2590  -26.9376   24.6641 N   0  0  0  0  0  0  0  0  0  0  0  0
   -3.5829  -27.6391   25.3368 C   0  0  0  0  0  0  0  0  0  0  0  0
   -4.1286  -26.7946   26.2694 C   0  0  0  0  0  0  0  0  0  0  0  0
   -3.5462  -25.6096   26.0539 N   0  0  0  0  0  0  0  0  0  0  0  0
   -2.7961  -25.7475   24.9608 C   0  0  0  0  0  0  0  0  0  0  0  0
   -2.9645  -25.3580   23.5784 C   0  0  0  0  0  0  0  0  0  0  0  0
    0.5635  -21.4855   23.0638 N   0  0  0  0  0  0  0  0  0  0  0  0
    0.6542  -19.7775   23.8568 C   0  0  0  0  0  0  0  0  0  0  0  0
    2.5256  -19.1684   24.5709 C   0  0  0  0  0  0  0  0  0  0  0  0
    3.3113  -18.6111   23.4205 C   0  0  0  0  0  0  0  0  0  0  0  0
    2.3116  -19.0206   21.6125 C   0  0  0  0  0  0  0  0  0  0  0  0
    2.1077  -20.2510   22.0911 C   0  0  0  0  0  0  0  0  0  0  0  0
    4.1450  -19.3813   21.7826 C   0  0  0  0  0  0  0  0  0  0  0  0
    5.4527  -18.3519   22.0312 N   0  0  0  0  0  0  0  0  0  0  0  0
    6.8486  -18.8075   21.0177 C   0  0  0  0  0  0  0  0  0  0  0  0
    6.4409  -18.0985   20.0683 C   0  0  0  0  0  0  0  0  0  0  0  0
    5.2099  -18.1952   20.8335 N   0  0  0  0  0  0  0  0  0  0  0  0
   -1.7546  -26.0790   21.1650 H   0  0  0  0  0  0  0  0  0  0  0  0
   -1.0515  -27.9732   22.9730 H   0  0  0  0  0  0  0  0  0  0  0  0
   -3.8305  -28.5763   24.9718 H   0  0  0  0  0  0  0  0  0  0  0  0
   -4.9323  -26.9587   26.9680 H   0  0  0  0  0  0  0  0  0  0  0  0
   -3.6616  -25.5308   22.6591 H   0  0  0  0  0  0  0  0  0  0  0  0
    0.6708  -19.1559   24.7916 H   0  0  0  0  0  0  0  0  0  0  0  0
   -0.0643  -19.2179   23.2577 H   0  0  0  0  0  0  0  0  0  0  0  0
    2.5132  -18.4528   25.3973 H   0  0  0  0  0  0  0  0  0  0  0  0
    3.3061  -19.9184   24.8051 H   0  0  0  0  0  0  0  0  0  0  0  0
    3.7204  -17.5618   23.2768 H   0  0  0  0  0  0  0  0  0  0  0  0
    3.1081  -17.7345   24.0679 H   0  0  0  0  0  0  0  0  0  0  0  0
    1.2329  -18.6588   21.4334 H   0  0  0  0  0  0  0  0  0  0  0  0
    2.7343  -19.3655   20.6477 H   0  0  0  0  0  0  0  0  0  0  0  0
    1.9656  -20.6487   21.0492 H   0  0  0  0  0  0  0  0  0  0  0  0
    7.7912  -19.1340   21.4284 H   0  0  0  0  0  0  0  0  0  0  0  0
    6.6680  -17.4526   19.2597 H   0  0  0  0  0  0  0  0  0  0  0  0
    4.7675  -17.5046   20.3700 H   0  0  0  0  0  0  0  0  0  0  0  0
  1  2  2  0
  2  3  1  0
  3  4  1  0
  4  5  2  0
  5  6  1  0
  6  7  1  0
  7  8  2  0
  8  9  1  0
  9 10  2  0
 10 11  1  0
  2 12  1  0
 12 13  1  0
 13 14  1  0
 14 15  1  0
 15 16  1  0
 16 17  1  0
 17 18  1  0
 18 19  2  0
 19 20  1  0
 20 21  2  0
 21 22  1  0
 11  3  2  0
 17 12  1  0
 22 18  1  0
 10  6  1  0
  4 23  1  0
  5 24  1  0
  7 25  1  0
  8 26  1  0
 11 27  1  0
 13 28  1  0
 13 29  1  0
 14 30  1  0
 14 31  1  0
 15 32  1  0
 15 33  1  0
 16 34  1  0
 16 35  1  0
 17 36  1  0
 20 37  1  0
 21 38  1  0
 22 39  1  0
M  END
>  <Energy>  (980) 
2645.6632709845194

>  <compound_id>  (980) 
33145

>  <target_id>  (980) 
1

>  <reference_id>  (980) 
45

>  <inspiration_ids>  (980) 
[63, 45]

>  <energy_score>  (980) 
2567.394868035595

>  <distance_score>  (980) 
12.483044147196392

>  <path>  (980) 
/opt/xchem-fragalysis-2/maxwin/BulkDock/SCRATCH/511017/C33145-P45/C33145-P45.minimised.mol

>  <scratch_subdir>  (980) 
/opt/xchem-fragalysis-2/maxwin/BulkDock/SCRATCH/511017/C33145-P45

>  <fragmenstein_runtime>  (980) 
22.97380757331848

>  <fragmenstein_outcome>  (980) 
too moved

>  <fragmenstein_mode>  (980) 
expansion

>  <fragmenstein_error>  (980) 


$$$$
C36270-P63
     RDKit          3D

 36 39  0  0  0  0  0  0  0  0999 V2000
   -2.7100  -17.4945   24.7834 O   0  0  0  0  0  0  0  0  0  0  0  0
   -2.4735  -18.7183   24.5366 C   0  0  0  0  0  0  0  0  0  0  0  0
   -1.8900  -19.4894   23.0806 N   0  0  0  0  0  0  0  0  0  0  0  0
   -1.5484  -18.7779   21.3946 C   0  0  0  0  0  0  0  0  0  0  0  0
   -0.6259  -19.3591   20.2322 C   0  0  0  0  0  0  0  0  0  0  0  0
   -0.1888  -17.6980   19.7289 C   0  0  0  0  0  0  0  0  0  0  0  0
    0.9748  -16.0546   19.6662 C   0  0  0  0  0  0  0  0  0  0  0  0
    2.1675  -14.9291   20.1183 N   0  0  0  0  0  0  0  0  0  0  0  0
    3.0355  -14.2087   18.5588 C   0  0  0  0  0  0  0  0  0  0  0  0
    2.7340  -15.1295   17.6091 C   0  0  0  0  0  0  0  0  0  0  0  0
    2.1836  -15.2165   18.7403 N   0  0  0  0  0  0  0  0  0  0  0  0
   -0.3362  -17.7623   21.2208 C   0  0  0  0  0  0  0  0  0  0  0  0
   -2.6355  -19.4221   25.6294 C   0  0  0  0  0  0  0  0  0  0  0  0
   -4.4667  -20.0745   25.5245 C   0  0  0  0  0  0  0  0  0  0  0  0
   -5.4575  -19.6899   26.7631 C   0  0  0  0  0  0  0  0  0  0  0  0
   -4.7089  -18.6442   28.1123 N   0  0  0  0  0  0  0  0  0  0  0  0
   -5.2542  -18.4176   30.0892 C   0  0  0  0  0  0  0  0  0  0  0  0
   -4.1622  -19.6441   31.0391 C   0  0  0  0  0  0  0  0  0  0  0  0
   -2.5332  -19.8858   29.7018 N   0  0  0  0  0  0  0  0  0  0  0  0
   -2.7267  -19.1069   27.9522 C   0  0  0  0  0  0  0  0  0  0  0  0
   -1.9437  -19.0341   26.7614 C   0  0  0  0  0  0  0  0  0  0  0  0
   -1.8915  -20.5020   23.2007 H   0  0  0  0  0  0  0  0  0  0  0  0
   -2.5320  -18.4679   21.0140 H   0  0  0  0  0  0  0  0  0  0  0  0
   -1.1956  -19.8921   19.4606 H   0  0  0  0  0  0  0  0  0  0  0  0
    0.2056  -20.0168   20.5280 H   0  0  0  0  0  0  0  0  0  0  0  0
    0.4667  -18.1702   18.9698 H   0  0  0  0  0  0  0  0  0  0  0  0
    3.8405  -13.4878   18.7397 H   0  0  0  0  0  0  0  0  0  0  0  0
    2.7967  -15.6196   16.6729 H   0  0  0  0  0  0  0  0  0  0  0  0
    3.0595  -15.3765   19.4986 H   0  0  0  0  0  0  0  0  0  0  0  0
    0.5308  -18.2966   21.5176 H   0  0  0  0  0  0  0  0  0  0  0  0
   -0.3160  -16.7329   21.5178 H   0  0  0  0  0  0  0  0  0  0  0  0
   -4.6134  -20.5867   24.5887 H   0  0  0  0  0  0  0  0  0  0  0  0
   -6.4731  -19.9110   27.0022 H   0  0  0  0  0  0  0  0  0  0  0  0
   -5.5959  -17.3882   30.2598 H   0  0  0  0  0  0  0  0  0  0  0  0
   -3.8698  -19.4519   32.0870 H   0  0  0  0  0  0  0  0  0  0  0  0
   -1.0164  -18.4785   26.7737 H   0  0  0  0  0  0  0  0  0  0  0  0
  1  2  2  0
  2  3  1  0
  3  4  1  0
  4  5  1  0
  5  6  1  0
  6  7  1  0
  7  8  2  0
  8  9  1  0
  9 10  2  0
 10 11  1  0
  6 12  1  0
  2 13  1  0
 13 14  1  0
 14 15  2  0
 15 16  1  0
 16 17  1  0
 17 18  2  0
 18 19  1  0
 19 20  2  0
 20 21  1  0
 12  4  1  0
 21 13  2  0
 11  7  1  0
 20 16  1  0
  3 22  1  0
  4 23  1  0
  5 24  1  0
  5 25  1  0
  6 26  1  0
  9 27  1  0
 10 28  1  0
 11 29  1  0
 12 30  1  0
 12 31  1  0
 14 32  1  0
 15 33  1  0
 17 34  1  0
 18 35  1  0
 21 36  1  0
M  END
>  <Energy>  (981) 
1603.4651222658904

>  <compound_id>  (981) 
36270

>  <target_id>  (981) 
1

>  <reference_id>  (981) 
63

>  <inspiration_ids>  (981) 
[63, 45]

>  <energy_score>  (981) 
1556.8908178352492

>  <distance_score>  (981) 
12.525381427617617

>  <path>  (981) 
/opt/xchem-fragalysis-2/maxwin/BulkDock/SCRATCH/511017/C36270-P63/C36270-P63.minimised.mol

>  <scratch_subdir>  (981) 
/opt/xchem-fragalysis-2/maxwin/BulkDock/SCRATCH/511017/C36270-P63

>  <fragmenstein_runtime>  (981) 
23.198076725006104

>  <fragmenstein_outcome>  (981) 
too moved

>  <fragmenstein_mode>  (981) 
expansion

>  <fragmenstein_error>  (981) 


$$$$
C36270-P45
     RDKit          3D

 36 39  0  0  0  0  0  0  0  0999 V2000
   -6.5631  -15.0971   20.7210 O   0  0  0  0  0  0  0  0  0  0  0  0
   -5.8050  -15.8067   20.1216 C   0  0  0  0  0  0  0  0  0  0  0  0
   -4.8548  -15.5000   19.0761 N   0  0  0  0  0  0  0  0  0  0  0  0
   -4.5826  -14.2281   18.3408 C   0  0  0  0  0  0  0  0  0  0  0  0
   -3.1507  -13.6282   18.4619 C   0  0  0  0  0  0  0  0  0  0  0  0
   -3.7945  -12.2347   18.1703 C   0  0  0  0  0  0  0  0  0  0  0  0
   -3.0628  -10.9455   18.7738 C   0  0  0  0  0  0  0  0  0  0  0  0
   -2.4411  -10.0318   18.0419 N   0  0  0  0  0  0  0  0  0  0  0  0
   -1.9214   -9.1303   18.9418 C   0  0  0  0  0  0  0  0  0  0  0  0
   -2.2829   -9.4501   20.2232 C   0  0  0  0  0  0  0  0  0  0  0  0
   -3.0229  -10.5909   20.0996 N   0  0  0  0  0  0  0  0  0  0  0  0
   -5.0615  -12.8345   18.8704 C   0  0  0  0  0  0  0  0  0  0  0  0
   -5.8345  -17.3112   20.4974 C   0  0  0  0  0  0  0  0  0  0  0  0
   -4.6380  -18.1531   20.6541 C   0  0  0  0  0  0  0  0  0  0  0  0
   -4.7668  -19.4520   20.9994 C   0  0  0  0  0  0  0  0  0  0  0  0
   -6.0360  -19.9875   21.2133 N   0  0  0  0  0  0  0  0  0  0  0  0
   -6.4359  -21.2748   21.4672 C   0  0  0  0  0  0  0  0  0  0  0  0
   -7.8049  -21.2294   21.5655 C   0  0  0  0  0  0  0  0  0  0  0  0
   -8.2615  -19.9487   21.4005 N   0  0  0  0  0  0  0  0  0  0  0  0
   -7.1922  -19.2208   21.1517 C   0  0  0  0  0  0  0  0  0  0  0  0
   -7.0492  -17.8420   20.7989 C   0  0  0  0  0  0  0  0  0  0  0  0
   -4.3219  -16.3346   18.8587 H   0  0  0  0  0  0  0  0  0  0  0  0
   -4.8731  -14.3803   17.2907 H   0  0  0  0  0  0  0  0  0  0  0  0
   -2.7111  -13.7319   19.4582 H   0  0  0  0  0  0  0  0  0  0  0  0
   -2.4354  -13.9769   17.7133 H   0  0  0  0  0  0  0  0  0  0  0  0
   -3.9768  -12.0729   17.0986 H   0  0  0  0  0  0  0  0  0  0  0  0
   -1.2701   -8.3247   18.6381 H   0  0  0  0  0  0  0  0  0  0  0  0
   -2.0640   -8.9970   21.1778 H   0  0  0  0  0  0  0  0  0  0  0  0
   -3.5069  -11.0720   20.8469 H   0  0  0  0  0  0  0  0  0  0  0  0
   -5.0916  -12.7093   19.9526 H   0  0  0  0  0  0  0  0  0  0  0  0
   -6.0172  -12.4932   18.4610 H   0  0  0  0  0  0  0  0  0  0  0  0
   -3.6581  -17.7108   20.5036 H   0  0  0  0  0  0  0  0  0  0  0  0
   -3.9159  -20.1085   21.1109 H   0  0  0  0  0  0  0  0  0  0  0  0
   -5.7595  -22.1080   21.5262 H   0  0  0  0  0  0  0  0  0  0  0  0
   -8.4867  -22.0499   21.7515 H   0  0  0  0  0  0  0  0  0  0  0  0
   -7.9567  -17.2476   20.7455 H   0  0  0  0  0  0  0  0  0  0  0  0
  1  2  2  0
  2  3  1  0
  3  4  1  0
  4  5  1  0
  5  6  1  0
  6  7  1  0
  7  8  2  0
  8  9  1  0
  9 10  2  0
 10 11  1  0
  6 12  1  0
  2 13  1  0
 13 14  1  0
 14 15  2  0
 15 16  1  0
 16 17  1  0
 17 18  2  0
 18 19  1  0
 19 20  2  0
 20 21  1  0
 12  4  1  0
 21 13  2  0
 11  7  1  0
 20 16  1  0
  3 22  1  0
  4 23  1  0
  5 24  1  0
  5 25  1  0
  6 26  1  0
  9 27  1  0
 10 28  1  0
 11 29  1  0
 12 30  1  0
 12 31  1  0
 14 32  1  0
 15 33  1  0
 17 34  1  0
 18 35  1  0
 21 36  1  0
M  END
>  <Energy>  (982) 
32.736160939683508

>  <compound_id>  (982) 
36270

>  <target_id>  (982) 
1

>  <reference_id>  (982) 
45

>  <inspiration_ids>  (982) 
[63, 45]

>  <energy_score>  (982) 
-13.838143490975995

>  <distance_score>  (982) 
13.59713038795131

>  <path>  (982) 
/opt/xchem-fragalysis-2/maxwin/BulkDock/SCRATCH/511017/C36270-P45/C36270-P45.minimised.mol

>  <scratch_subdir>  (982) 
/opt/xchem-fragalysis-2/maxwin/BulkDock/SCRATCH/511017/C36270-P45

>  <fragmenstein_runtime>  (982) 
34.001612186431885

>  <fragmenstein_outcome>  (982) 
too moved

>  <fragmenstein_mode>  (982) 
expansion

>  <fragmenstein_error>  (982) 


$$$$
C36292-P63
     RDKit          3D

 32 34  0  0  0  0  0  0  0  0999 V2000
   -4.6524  -16.1355   22.3184 C   0  0  0  0  0  0  0  0  0  0  0  0
   -3.3175  -16.7742   22.1857 C   0  0  0  0  0  0  0  0  0  0  0  0
   -2.2424  -16.1890   21.6816 N   0  0  0  0  0  0  0  0  0  0  0  0
   -1.2575  -17.1377   21.7176 C   0  0  0  0  0  0  0  0  0  0  0  0
   -1.7278  -18.3004   22.2865 C   0  0  0  0  0  0  0  0  0  0  0  0
   -3.0599  -18.0853   22.5938 N   0  0  0  0  0  0  0  0  0  0  0  0
   -3.8846  -18.9121   23.5805 C   0  0  0  0  0  0  0  0  0  0  0  0
   -4.6473  -20.1937   23.1777 C   0  0  0  0  0  0  0  0  0  0  0  0
   -4.9144  -20.2843   21.9916 O   0  0  0  0  0  0  0  0  0  0  0  0
   -4.8750  -21.2866   24.4147 N   0  0  0  0  0  0  0  0  0  0  0  0
   -5.4683  -22.9753   24.3701 C   0  0  0  0  0  0  0  0  0  0  0  0
   -4.9158  -24.3529   24.0062 C   0  0  0  0  0  0  0  0  0  0  0  0
   -5.9261  -25.2492   24.5732 C   0  0  0  0  0  0  0  0  0  0  0  0
   -6.5613  -26.6512   26.1194 N   0  0  0  0  0  0  0  0  0  0  0  0
   -8.3653  -27.4648   26.1102 C   0  0  0  0  0  0  0  0  0  0  0  0
   -9.4853  -26.6803   24.8714 C   0  0  0  0  0  0  0  0  0  0  0  0
   -8.5033  -24.9748   24.2762 N   0  0  0  0  0  0  0  0  0  0  0  0
   -6.7551  -24.8462   24.8344 C   0  0  0  0  0  0  0  0  0  0  0  0
   -6.1859  -23.4020   25.4373 C   0  0  0  0  0  0  0  0  0  0  0  0
   -4.7055  -15.2327   21.7018 H   0  0  0  0  0  0  0  0  0  0  0  0
   -4.8371  -15.8472   23.3577 H   0  0  0  0  0  0  0  0  0  0  0  0
   -5.4471  -16.8130   21.9914 H   0  0  0  0  0  0  0  0  0  0  0  0
   -0.2609  -16.9442   21.3462 H   0  0  0  0  0  0  0  0  0  0  0  0
   -1.2407  -19.2402   22.5061 H   0  0  0  0  0  0  0  0  0  0  0  0
   -4.6438  -18.2158   23.9315 H   0  0  0  0  0  0  0  0  0  0  0  0
   -3.1188  -19.2085   24.2940 H   0  0  0  0  0  0  0  0  0  0  0  0
   -4.6190  -20.8632   25.2949 H   0  0  0  0  0  0  0  0  0  0  0  0
   -4.7744  -24.4457   22.9192 H   0  0  0  0  0  0  0  0  0  0  0  0
   -5.9821  -25.7599   23.3625 H   0  0  0  0  0  0  0  0  0  0  0  0
   -8.5616  -27.3282   27.1723 H   0  0  0  0  0  0  0  0  0  0  0  0
  -10.5461  -26.4683   25.0533 H   0  0  0  0  0  0  0  0  0  0  0  0
   -6.6103  -22.9761   26.3304 H   0  0  0  0  0  0  0  0  0  0  0  0
  1  2  1  0
  2  3  2  0
  3  4  1  0
  4  5  2  0
  5  6  1  0
  6  7  1  0
  7  8  1  0
  8  9  2  0
  8 10  1  0
 10 11  1  0
 11 12  1  0
 12 13  2  0
 13 14  1  0
 14 15  1  0
 15 16  2  0
 16 17  1  0
 17 18  2  0
 18 19  1  0
  6  2  1  0
 19 11  2  0
 18 14  1  0
  1 20  1  0
  1 21  1  0
  1 22  1  0
  4 23  1  0
  5 24  1  0
  7 25  1  0
  7 26  1  0
 10 27  1  0
 12 28  1  0
 13 29  1  0
 15 30  1  0
 16 31  1  0
 19 32  1  0
M  END
>  <Energy>  (983) 
1616.6028303399987

>  <compound_id>  (983) 
36292

>  <target_id>  (983) 
1

>  <reference_id>  (983) 
63

>  <inspiration_ids>  (983) 
[63, 45]

>  <energy_score>  (983) 
1554.2644292293633

>  <distance_score>  (983) 
13.816497171925096

>  <path>  (983) 
/opt/xchem-fragalysis-2/maxwin/BulkDock/SCRATCH/511017/C36292-P63/C36292-P63.minimised.mol

>  <scratch_subdir>  (983) 
/opt/xchem-fragalysis-2/maxwin/BulkDock/SCRATCH/511017/C36292-P63

>  <fragmenstein_runtime>  (983) 
26.749358892440796

>  <fragmenstein_outcome>  (983) 
too moved

>  <fragmenstein_mode>  (983) 
expansion

>  <fragmenstein_error>  (983) 


$$$$
C36292-P45
     RDKit          3D

 32 34  0  0  0  0  0  0  0  0999 V2000
    4.9229   -9.2779   18.2118 C   0  0  0  0  0  0  0  0  0  0  0  0
    3.7458  -10.1750   17.4233 C   0  0  0  0  0  0  0  0  0  0  0  0
    2.9550   -9.1570   17.2181 N   0  0  0  0  0  0  0  0  0  0  0  0
    2.4377  -10.0843   17.6878 C   0  0  0  0  0  0  0  0  0  0  0  0
    3.1170  -11.3152   16.7900 C   0  0  0  0  0  0  0  0  0  0  0  0
    3.6245  -12.0294   17.8705 N   0  0  0  0  0  0  0  0  0  0  0  0
    3.0159  -13.8765   18.3833 C   0  0  0  0  0  0  0  0  0  0  0  0
    2.3266  -14.8029   20.0822 C   0  0  0  0  0  0  0  0  0  0  0  0
    2.8256  -14.4088   21.0958 O   0  0  0  0  0  0  0  0  0  0  0  0
    0.9373  -16.0384   20.0741 N   0  0  0  0  0  0  0  0  0  0  0  0
    0.1231  -16.6814   21.2227 C   0  0  0  0  0  0  0  0  0  0  0  0
   -0.4092  -18.0241   20.7398 C   0  0  0  0  0  0  0  0  0  0  0  0
   -1.3852  -18.7068   21.3512 C   0  0  0  0  0  0  0  0  0  0  0  0
   -2.0391  -18.0936   22.3882 N   0  0  0  0  0  0  0  0  0  0  0  0
   -3.2624  -18.4187   22.9069 C   0  0  0  0  0  0  0  0  0  0  0  0
   -3.6748  -17.2657   23.5230 C   0  0  0  0  0  0  0  0  0  0  0  0
   -2.6408  -16.3689   23.6455 N   0  0  0  0  0  0  0  0  0  0  0  0
   -1.6578  -16.8588   22.9040 C   0  0  0  0  0  0  0  0  0  0  0  0
   -0.4545  -16.2244   22.3767 C   0  0  0  0  0  0  0  0  0  0  0  0
    5.0389   -8.1737   18.1098 H   0  0  0  0  0  0  0  0  0  0  0  0
    4.6084   -8.9907   19.1127 H   0  0  0  0  0  0  0  0  0  0  0  0
    5.6541  -10.0367   18.6039 H   0  0  0  0  0  0  0  0  0  0  0  0
    2.0276   -9.7698   18.6396 H   0  0  0  0  0  0  0  0  0  0  0  0
    3.6503  -11.3733   15.8132 H   0  0  0  0  0  0  0  0  0  0  0  0
    2.1214  -14.0396   17.7698 H   0  0  0  0  0  0  0  0  0  0  0  0
    3.9704  -14.3561   18.1622 H   0  0  0  0  0  0  0  0  0  0  0  0
    0.7453  -16.2756   19.1890 H   0  0  0  0  0  0  0  0  0  0  0  0
    0.0078  -18.4649   19.8414 H   0  0  0  0  0  0  0  0  0  0  0  0
   -1.7650  -19.6547   20.9928 H   0  0  0  0  0  0  0  0  0  0  0  0
   -3.7758  -19.3359   22.6608 H   0  0  0  0  0  0  0  0  0  0  0  0
   -4.6639  -17.0446   23.9046 H   0  0  0  0  0  0  0  0  0  0  0  0
   -0.1926  -15.2648   22.8009 H   0  0  0  0  0  0  0  0  0  0  0  0
  1  2  1  0
  2  3  2  0
  3  4  1  0
  4  5  2  0
  5  6  1  0
  6  7  1  0
  7  8  1  0
  8  9  2  0
  8 10  1  0
 10 11  1  0
 11 12  1  0
 12 13  2  0
 13 14  1  0
 14 15  1  0
 15 16  2  0
 16 17  1  0
 17 18  2  0
 18 19  1  0
  6  2  1  0
 19 11  2  0
 18 14  1  0
  1 20  1  0
  1 21  1  0
  1 22  1  0
  4 23  1  0
  5 24  1  0
  7 25  1  0
  7 26  1  0
 10 27  1  0
 12 28  1  0
 13 29  1  0
 15 30  1  0
 16 31  1  0
 19 32  1  0
M  END
>  <Energy>  (984) 
817.34456126890564

>  <compound_id>  (984) 
36292

>  <target_id>  (984) 
1

>  <reference_id>  (984) 
45

>  <inspiration_ids>  (984) 
[63, 45]

>  <energy_score>  (984) 
755.0061601582164

>  <distance_score>  (984) 
13.085829053326044

>  <path>  (984) 
/opt/xchem-fragalysis-2/maxwin/BulkDock/SCRATCH/511017/C36292-P45/C36292-P45.minimised.mol

>  <scratch_subdir>  (984) 
/opt/xchem-fragalysis-2/maxwin/BulkDock/SCRATCH/511017/C36292-P45

>  <fragmenstein_runtime>  (984) 
20.146912097930908

>  <fragmenstein_outcome>  (984) 
too moved

>  <fragmenstein_mode>  (984) 
expansion

>  <fragmenstein_error>  (984) 


$$$$
C36293-P63
     RDKit          3D

 40 42  0  0  0  0  0  0  0  0999 V2000
    4.5028   -7.4633   23.8361 C   0  0  0  0  0  0  0  0  0  0  0  0
    2.9803   -8.4193   23.0078 C   0  0  0  0  0  0  0  0  0  0  0  0
    1.6318   -8.0017   23.3844 N   0  0  0  0  0  0  0  0  0  0  0  0
    1.0567   -8.2607   22.2055 C   0  0  0  0  0  0  0  0  0  0  0  0
    1.8728   -9.2794   21.6196 C   0  0  0  0  0  0  0  0  0  0  0  0
    3.1199  -10.2537   22.7467 N   0  0  0  0  0  0  0  0  0  0  0  0
    2.2332  -11.7862   23.1913 C   0  0  0  0  0  0  0  0  0  0  0  0
    0.4258  -11.8749   22.8005 C   0  0  0  0  0  0  0  0  0  0  0  0
   -0.4846  -10.5771   21.9521 C   0  0  0  0  0  0  0  0  0  0  0  0
   -0.1891  -13.8658   23.2698 C   0  0  0  0  0  0  0  0  0  0  0  0
   -1.5215  -15.0709   23.9154 O   0  0  0  0  0  0  0  0  0  0  0  0
   -3.1775  -15.4610   24.0681 C   0  0  0  0  0  0  0  0  0  0  0  0
   -3.7227  -15.0813   25.1142 O   0  0  0  0  0  0  0  0  0  0  0  0
   -4.2702  -16.5182   22.9465 C   0  0  0  0  0  0  0  0  0  0  0  0
   -4.0766  -16.7120   21.4043 C   0  0  0  0  0  0  0  0  0  0  0  0
   -4.3983  -17.8159   20.7236 C   0  0  0  0  0  0  0  0  0  0  0  0
   -5.1841  -18.7329   21.3396 N   0  0  0  0  0  0  0  0  0  0  0  0
   -5.6395  -19.9304   20.8591 C   0  0  0  0  0  0  0  0  0  0  0  0
   -6.6172  -20.3049   21.7328 C   0  0  0  0  0  0  0  0  0  0  0  0
   -6.7125  -19.3750   22.7273 N   0  0  0  0  0  0  0  0  0  0  0  0
   -5.7580  -18.4775   22.5683 C   0  0  0  0  0  0  0  0  0  0  0  0
   -5.2548  -17.3519   23.3772 C   0  0  0  0  0  0  0  0  0  0  0  0
    4.0282   -6.7943   24.5731 H   0  0  0  0  0  0  0  0  0  0  0  0
    5.1445   -8.0503   24.5327 H   0  0  0  0  0  0  0  0  0  0  0  0
    5.2245   -7.0396   23.1598 H   0  0  0  0  0  0  0  0  0  0  0  0
    0.1455   -7.8236   21.8463 H   0  0  0  0  0  0  0  0  0  0  0  0
    1.5982   -9.6503   20.6579 H   0  0  0  0  0  0  0  0  0  0  0  0
    2.3314  -11.9120   24.2419 H   0  0  0  0  0  0  0  0  0  0  0  0
    3.0114  -12.4009   22.7173 H   0  0  0  0  0  0  0  0  0  0  0  0
   -0.4120  -12.3969   22.4745 H   0  0  0  0  0  0  0  0  0  0  0  0
   -0.8136   -9.7364   22.5472 H   0  0  0  0  0  0  0  0  0  0  0  0
   -1.3778  -10.9730   21.4294 H   0  0  0  0  0  0  0  0  0  0  0  0
   -0.0011  -10.1954   21.1133 H   0  0  0  0  0  0  0  0  0  0  0  0
   -0.1040  -14.4108   22.3529 H   0  0  0  0  0  0  0  0  0  0  0  0
    0.5843  -14.1666   23.9855 H   0  0  0  0  0  0  0  0  0  0  0  0
   -3.5018  -15.9940   20.8348 H   0  0  0  0  0  0  0  0  0  0  0  0
   -4.1248  -17.9801   19.6894 H   0  0  0  0  0  0  0  0  0  0  0  0
   -5.2827  -20.3602   19.9348 H   0  0  0  0  0  0  0  0  0  0  0  0
   -7.2661  -21.1704   21.6956 H   0  0  0  0  0  0  0  0  0  0  0  0
   -5.5826  -17.2449   24.3849 H   0  0  0  0  0  0  0  0  0  0  0  0
  1  2  1  0
  2  3  2  0
  3  4  1  0
  4  5  2  0
  5  6  1  0
  6  7  1  0
  7  8  1  0
  8  9  1  0
  8 10  1  0
 10 11  1  0
 11 12  1  0
 12 13  2  0
 12 14  1  0
 14 15  1  0
 15 16  2  0
 16 17  1  0
 17 18  1  0
 18 19  2  0
 19 20  1  0
 20 21  2  0
 21 22  1  0
  6  2  1  0
 22 14  2  0
 21 17  1  0
  1 23  1  0
  1 24  1  0
  1 25  1  0
  4 26  1  0
  5 27  1  0
  7 28  1  0
  7 29  1  0
  8 30  1  0
  9 31  1  0
  9 32  1  0
  9 33  1  0
 10 34  1  0
 10 35  1  0
 15 36  1  0
 16 37  1  0
 18 38  1  0
 19 39  1  0
 22 40  1  0
M  END
>  <Energy>  (985) 
861.04770225926632

>  <compound_id>  (985) 
36293

>  <target_id>  (985) 
1

>  <reference_id>  (985) 
63

>  <inspiration_ids>  (985) 
[63, 45]

>  <energy_score>  (985) 
792.338343295216

>  <distance_score>  (985) 
12.534776923563337

>  <path>  (985) 
/opt/xchem-fragalysis-2/maxwin/BulkDock/SCRATCH/511017/C36293-P63/C36293-P63.minimised.mol

>  <scratch_subdir>  (985) 
/opt/xchem-fragalysis-2/maxwin/BulkDock/SCRATCH/511017/C36293-P63

>  <fragmenstein_runtime>  (985) 
36.33912110328674

>  <fragmenstein_outcome>  (985) 
too moved

>  <fragmenstein_mode>  (985) 
expansion

>  <fragmenstein_error>  (985) 


$$$$
C36293-P45
     RDKit          3D

 40 42  0  0  0  0  0  0  0  0999 V2000
    3.9962  -13.8635   18.8310 C   0  0  0  0  0  0  0  0  0  0  0  0
    2.4453  -14.6742   19.4006 C   0  0  0  0  0  0  0  0  0  0  0  0
    1.8550  -13.9056   18.3083 N   0  0  0  0  0  0  0  0  0  0  0  0
    1.9694  -14.7238   17.3755 C   0  0  0  0  0  0  0  0  0  0  0  0
    2.5047  -15.7881   18.0453 C   0  0  0  0  0  0  0  0  0  0  0  0
    1.0994  -15.9971   19.2355 N   0  0  0  0  0  0  0  0  0  0  0  0
    0.0944  -17.4453   20.1911 C   0  0  0  0  0  0  0  0  0  0  0  0
   -0.2742  -19.4049   20.8946 C   0  0  0  0  0  0  0  0  0  0  0  0
   -0.5506  -20.1393   19.5554 C   0  0  0  0  0  0  0  0  0  0  0  0
   -1.3913  -20.6990   22.1076 C   0  0  0  0  0  0  0  0  0  0  0  0
   -1.7877  -22.4731   22.9431 O   0  0  0  0  0  0  0  0  0  0  0  0
   -3.1488  -24.2234   22.9894 C   0  0  0  0  0  0  0  0  0  0  0  0
   -3.1715  -25.2579   22.2567 O   0  0  0  0  0  0  0  0  0  0  0  0
   -4.6276  -23.8434   24.4557 C   0  0  0  0  0  0  0  0  0  0  0  0
   -4.2222  -25.0373   25.8072 C   0  0  0  0  0  0  0  0  0  0  0  0
   -4.8128  -25.0108   26.9944 C   0  0  0  0  0  0  0  0  0  0  0  0
   -5.9528  -24.2978   27.0641 N   0  0  0  0  0  0  0  0  0  0  0  0
   -6.7813  -24.1259   28.1233 C   0  0  0  0  0  0  0  0  0  0  0  0
   -8.0218  -24.2306   27.5707 C   0  0  0  0  0  0  0  0  0  0  0  0
   -7.8948  -24.2023   26.2110 N   0  0  0  0  0  0  0  0  0  0  0  0
   -6.6323  -23.8905   25.9458 C   0  0  0  0  0  0  0  0  0  0  0  0
   -5.9191  -23.5760   24.6754 C   0  0  0  0  0  0  0  0  0  0  0  0
    4.5922  -14.5732   18.2755 H   0  0  0  0  0  0  0  0  0  0  0  0
    3.7499  -12.9828   18.2365 H   0  0  0  0  0  0  0  0  0  0  0  0
    4.5424  -13.3486   19.6474 H   0  0  0  0  0  0  0  0  0  0  0  0
    1.3447  -14.5626   16.5204 H   0  0  0  0  0  0  0  0  0  0  0  0
    3.4512  -15.8985   18.5617 H   0  0  0  0  0  0  0  0  0  0  0  0
    0.4616  -16.9827   21.0701 H   0  0  0  0  0  0  0  0  0  0  0  0
    0.5066  -17.9617   19.3166 H   0  0  0  0  0  0  0  0  0  0  0  0
    0.7318  -19.7059   21.2110 H   0  0  0  0  0  0  0  0  0  0  0  0
    0.2479  -19.9688   18.8275 H   0  0  0  0  0  0  0  0  0  0  0  0
   -1.4973  -19.7937   19.1304 H   0  0  0  0  0  0  0  0  0  0  0  0
   -0.6142  -21.2208   19.7087 H   0  0  0  0  0  0  0  0  0  0  0  0
   -2.4191  -20.4269   21.8405 H   0  0  0  0  0  0  0  0  0  0  0  0
   -1.1681  -20.2455   23.0741 H   0  0  0  0  0  0  0  0  0  0  0  0
   -3.3387  -25.6646   25.6221 H   0  0  0  0  0  0  0  0  0  0  0  0
   -4.4853  -25.5882   27.8367 H   0  0  0  0  0  0  0  0  0  0  0  0
   -6.4002  -24.1298   29.1181 H   0  0  0  0  0  0  0  0  0  0  0  0
   -8.9863  -24.3230   28.0513 H   0  0  0  0  0  0  0  0  0  0  0  0
   -6.4564  -23.4191   23.7239 H   0  0  0  0  0  0  0  0  0  0  0  0
  1  2  1  0
  2  3  2  0
  3  4  1  0
  4  5  2  0
  5  6  1  0
  6  7  1  0
  7  8  1  0
  8  9  1  0
  8 10  1  0
 10 11  1  0
 11 12  1  0
 12 13  2  0
 12 14  1  0
 14 15  1  0
 15 16  2  0
 16 17  1  0
 17 18  1  0
 18 19  2  0
 19 20  1  0
 20 21  2  0
 21 22  1  0
  6  2  1  0
 22 14  2  0
 21 17  1  0
  1 23  1  0
  1 24  1  0
  1 25  1  0
  4 26  1  0
  5 27  1  0
  7 28  1  0
  7 29  1  0
  8 30  1  0
  9 31  1  0
  9 32  1  0
  9 33  1  0
 10 34  1  0
 10 35  1  0
 15 36  1  0
 16 37  1  0
 18 38  1  0
 19 39  1  0
 22 40  1  0
M  END
>  <Energy>  (986) 
1477.0287968060484

>  <compound_id>  (986) 
36293

>  <target_id>  (986) 
1

>  <reference_id>  (986) 
45

>  <inspiration_ids>  (986) 
[63, 45]

>  <energy_score>  (986) 
1408.3194378420494

>  <distance_score>  (986) 
10.897875579196263

>  <path>  (986) 
/opt/xchem-fragalysis-2/maxwin/BulkDock/SCRATCH/511017/C36293-P45/C36293-P45.minimised.mol

>  <scratch_subdir>  (986) 
/opt/xchem-fragalysis-2/maxwin/BulkDock/SCRATCH/511017/C36293-P45

>  <fragmenstein_runtime>  (986) 
23.28803038597107

>  <fragmenstein_outcome>  (986) 
too moved

>  <fragmenstein_mode>  (986) 
expansion

>  <fragmenstein_error>  (986) 


$$$$
C36280-P63
     RDKit          3D

 32 34  0  0  0  0  0  0  0  0999 V2000
   -1.6358  -15.6852   19.2537 O   0  0  0  0  0  0  0  0  0  0  0  0
   -0.6887  -16.1782   19.9047 C   0  0  0  0  0  0  0  0  0  0  0  0
    1.0888  -15.8477   19.7092 N   0  0  0  0  0  0  0  0  0  0  0  0
    2.1383  -14.4439   18.4472 C   0  0  0  0  0  0  0  0  0  0  0  0
    3.2259  -12.6028   18.0218 C   0  0  0  0  0  0  0  0  0  0  0  0
    2.8867  -11.8217   16.6258 N   0  0  0  0  0  0  0  0  0  0  0  0
    3.7974  -11.3544   15.7359 C   0  0  0  0  0  0  0  0  0  0  0  0
    3.8916  -10.2665   16.4712 C   0  0  0  0  0  0  0  0  0  0  0  0
    3.0398  -10.7985   17.5367 N   0  0  0  0  0  0  0  0  0  0  0  0
    2.4195   -9.3837   18.0839 C   0  0  0  0  0  0  0  0  0  0  0  0
    1.9446   -9.2352   19.3154 F   0  0  0  0  0  0  0  0  0  0  0  0
    1.5278   -8.6741   17.3092 F   0  0  0  0  0  0  0  0  0  0  0  0
   -1.2231  -17.2151   20.9054 C   0  0  0  0  0  0  0  0  0  0  0  0
   -2.0322  -16.6519   22.0089 C   0  0  0  0  0  0  0  0  0  0  0  0
   -3.0525  -17.3121   22.5764 C   0  0  0  0  0  0  0  0  0  0  0  0
   -3.4490  -18.5073   22.0221 N   0  0  0  0  0  0  0  0  0  0  0  0
   -4.5807  -19.2272   22.2895 C   0  0  0  0  0  0  0  0  0  0  0  0
   -4.6890  -20.1024   21.2414 C   0  0  0  0  0  0  0  0  0  0  0  0
   -3.5785  -20.0350   20.4262 N   0  0  0  0  0  0  0  0  0  0  0  0
   -2.8213  -19.0721   20.9193 C   0  0  0  0  0  0  0  0  0  0  0  0
   -1.6442  -18.4079   20.3909 C   0  0  0  0  0  0  0  0  0  0  0  0
    1.5619  -16.2928   20.3799 H   0  0  0  0  0  0  0  0  0  0  0  0
    2.7919  -14.4250   19.2809 H   0  0  0  0  0  0  0  0  0  0  0  0
    1.2708  -13.9733   18.0022 H   0  0  0  0  0  0  0  0  0  0  0  0
    3.9215  -11.5622   14.6847 H   0  0  0  0  0  0  0  0  0  0  0  0
    4.1611   -9.2266   16.3080 H   0  0  0  0  0  0  0  0  0  0  0  0
    3.3049   -8.7583   18.0049 H   0  0  0  0  0  0  0  0  0  0  0  0
   -1.7837  -15.6532   22.3399 H   0  0  0  0  0  0  0  0  0  0  0  0
   -3.6535  -16.9024   23.3760 H   0  0  0  0  0  0  0  0  0  0  0  0
   -5.2352  -18.9856   23.1117 H   0  0  0  0  0  0  0  0  0  0  0  0
   -5.4937  -20.7968   21.0347 H   0  0  0  0  0  0  0  0  0  0  0  0
   -1.2891  -18.7529   19.4246 H   0  0  0  0  0  0  0  0  0  0  0  0
  1  2  2  0
  2  3  1  0
  3  4  1  0
  4  5  1  0
  5  6  2  0
  6  7  1  0
  7  8  2  0
  8  9  1  0
  9 10  1  0
 10 11  1  0
 10 12  1  0
  2 13  1  0
 13 14  1  0
 14 15  2  0
 15 16  1  0
 16 17  1  0
 17 18  2  0
 18 19  1  0
 19 20  2  0
 20 21  1  0
  9  5  1  0
 21 13  2  0
 20 16  1  0
  3 22  1  0
  4 23  1  0
  4 24  1  0
  7 25  1  0
  8 26  1  0
 10 27  1  0
 14 28  1  0
 15 29  1  0
 17 30  1  0
 18 31  1  0
 21 32  1  0
M  END
>  <Energy>  (987) 
813.53394007043062

>  <compound_id>  (987) 
36280

>  <target_id>  (987) 
1

>  <reference_id>  (987) 
63

>  <inspiration_ids>  (987) 
[63, 45]

>  <energy_score>  (987) 
772.1635658072407

>  <distance_score>  (987) 
12.696928859397199

>  <path>  (987) 
/opt/xchem-fragalysis-2/maxwin/BulkDock/SCRATCH/511017/C36280-P63/C36280-P63.minimised.mol

>  <scratch_subdir>  (987) 
/opt/xchem-fragalysis-2/maxwin/BulkDock/SCRATCH/511017/C36280-P63

>  <fragmenstein_runtime>  (987) 
21.68853449821472

>  <fragmenstein_outcome>  (987) 
too moved

>  <fragmenstein_mode>  (987) 
expansion

>  <fragmenstein_error>  (987) 


$$$$
C36280-P45
     RDKit          3D

 32 34  0  0  0  0  0  0  0  0999 V2000
    2.4945  -14.8997   21.1700 O   0  0  0  0  0  0  0  0  0  0  0  0
    1.9822  -15.2333   20.1844 C   0  0  0  0  0  0  0  0  0  0  0  0
    2.4638  -14.5280   18.5993 N   0  0  0  0  0  0  0  0  0  0  0  0
    3.6514  -13.1603   18.1822 C   0  0  0  0  0  0  0  0  0  0  0  0
    3.6012  -11.5721   16.9391 C   0  0  0  0  0  0  0  0  0  0  0  0
    3.5025  -10.2071   17.2761 N   0  0  0  0  0  0  0  0  0  0  0  0
    3.9829   -9.2190   16.3549 C   0  0  0  0  0  0  0  0  0  0  0  0
    4.1249   -9.8217   15.1337 C   0  0  0  0  0  0  0  0  0  0  0  0
    3.8400  -11.2603   15.3437 N   0  0  0  0  0  0  0  0  0  0  0  0
    3.5844  -11.9846   14.0705 C   0  0  0  0  0  0  0  0  0  0  0  0
    3.1982  -11.1204   13.0719 F   0  0  0  0  0  0  0  0  0  0  0  0
    4.6741  -12.6123   13.5453 F   0  0  0  0  0  0  0  0  0  0  0  0
    0.4280  -16.5214   20.5377 C   0  0  0  0  0  0  0  0  0  0  0  0
    0.4011  -17.8642   21.5959 C   0  0  0  0  0  0  0  0  0  0  0  0
   -0.6283  -18.5782   22.0752 C   0  0  0  0  0  0  0  0  0  0  0  0
   -1.8834  -18.2594   21.6938 N   0  0  0  0  0  0  0  0  0  0  0  0
   -3.0811  -18.8033   22.0742 C   0  0  0  0  0  0  0  0  0  0  0  0
   -4.0204  -18.0990   21.3668 C   0  0  0  0  0  0  0  0  0  0  0  0
   -3.4152  -17.1476   20.5742 N   0  0  0  0  0  0  0  0  0  0  0  0
   -2.1113  -17.2606   20.7853 C   0  0  0  0  0  0  0  0  0  0  0  0
   -0.9897  -16.4760   20.2686 C   0  0  0  0  0  0  0  0  0  0  0  0
    1.9674  -15.0028   17.8666 H   0  0  0  0  0  0  0  0  0  0  0  0
    4.2215  -12.8598   19.0859 H   0  0  0  0  0  0  0  0  0  0  0  0
    4.2548  -14.0429   17.8973 H   0  0  0  0  0  0  0  0  0  0  0  0
    4.0679   -8.1854   16.6506 H   0  0  0  0  0  0  0  0  0  0  0  0
    4.3732   -9.4716   14.1428 H   0  0  0  0  0  0  0  0  0  0  0  0
    2.7543  -12.6846   14.1647 H   0  0  0  0  0  0  0  0  0  0  0  0
    1.3159  -18.3363   21.9413 H   0  0  0  0  0  0  0  0  0  0  0  0
   -0.5005  -19.4208   22.7431 H   0  0  0  0  0  0  0  0  0  0  0  0
   -3.1518  -19.6047   22.7939 H   0  0  0  0  0  0  0  0  0  0  0  0
   -5.0962  -18.2155   21.3814 H   0  0  0  0  0  0  0  0  0  0  0  0
   -1.4276  -15.6987   19.6424 H   0  0  0  0  0  0  0  0  0  0  0  0
  1  2  2  0
  2  3  1  0
  3  4  1  0
  4  5  1  0
  5  6  2  0
  6  7  1  0
  7  8  2  0
  8  9  1  0
  9 10  1  0
 10 11  1  0
 10 12  1  0
  2 13  1  0
 13 14  1  0
 14 15  2  0
 15 16  1  0
 16 17  1  0
 17 18  2  0
 18 19  1  0
 19 20  2  0
 20 21  1  0
  9  5  1  0
 21 13  2  0
 20 16  1  0
  3 22  1  0
  4 23  1  0
  4 24  1  0
  7 25  1  0
  8 26  1  0
 10 27  1  0
 14 28  1  0
 15 29  1  0
 17 30  1  0
 18 31  1  0
 21 32  1  0
M  END
>  <Energy>  (988) 
434.98191947760887

>  <compound_id>  (988) 
36280

>  <target_id>  (988) 
1

>  <reference_id>  (988) 
45

>  <inspiration_ids>  (988) 
[63, 45]

>  <energy_score>  (988) 
393.611545214407

>  <distance_score>  (988) 
13.117505936978828

>  <path>  (988) 
/opt/xchem-fragalysis-2/maxwin/BulkDock/SCRATCH/511017/C36280-P45/C36280-P45.minimised.mol

>  <scratch_subdir>  (988) 
/opt/xchem-fragalysis-2/maxwin/BulkDock/SCRATCH/511017/C36280-P45

>  <fragmenstein_runtime>  (988) 
15.523812770843506

>  <fragmenstein_outcome>  (988) 
too moved

>  <fragmenstein_mode>  (988) 
expansion

>  <fragmenstein_error>  (988) 


$$$$
C36295-P63
     RDKit          3D

 31 33  0  0  0  0  0  0  0  0999 V2000
   -8.0064  -16.8768   18.4599 O   0  0  0  0  0  0  0  0  0  0  0  0
   -7.0831  -17.6861   18.4041 C   0  0  0  0  0  0  0  0  0  0  0  0
   -6.0387  -17.5520   17.5231 O   0  0  0  0  0  0  0  0  0  0  0  0
   -6.1308  -16.3750   16.6279 C   0  0  0  0  0  0  0  0  0  0  0  0
   -4.7576  -15.9915   16.0223 C   0  0  0  0  0  0  0  0  0  0  0  0
   -4.5007  -14.6399   15.5128 N   0  0  0  0  0  0  0  0  0  0  0  0
   -5.2268  -13.4949   15.7000 C   0  0  0  0  0  0  0  0  0  0  0  0
   -4.5949  -12.5152   14.9720 C   0  0  0  0  0  0  0  0  0  0  0  0
   -3.4621  -13.0110   14.3825 N   0  0  0  0  0  0  0  0  0  0  0  0
   -3.4297  -14.2844   14.7219 C   0  0  0  0  0  0  0  0  0  0  0  0
   -7.0595  -18.8880   19.3407 C   0  0  0  0  0  0  0  0  0  0  0  0
   -8.0281  -18.8748   20.4627 C   0  0  0  0  0  0  0  0  0  0  0  0
   -8.1683  -19.9325   21.2794 C   0  0  0  0  0  0  0  0  0  0  0  0
   -7.3769  -21.0488   21.0804 N   0  0  0  0  0  0  0  0  0  0  0  0
   -7.3697  -22.2477   21.7443 C   0  0  0  0  0  0  0  0  0  0  0  0
   -6.4067  -23.0004   21.1218 C   0  0  0  0  0  0  0  0  0  0  0  0
   -5.8377  -22.3029   20.0817 N   0  0  0  0  0  0  0  0  0  0  0  0
   -6.4258  -21.1237   20.0694 C   0  0  0  0  0  0  0  0  0  0  0  0
   -6.2805  -19.9884   19.1905 C   0  0  0  0  0  0  0  0  0  0  0  0
   -6.8295  -16.6269   15.8224 H   0  0  0  0  0  0  0  0  0  0  0  0
   -6.5387  -15.5290   17.1852 H   0  0  0  0  0  0  0  0  0  0  0  0
   -4.5222  -16.6867   15.2075 H   0  0  0  0  0  0  0  0  0  0  0  0
   -4.0221  -16.1533   16.8015 H   0  0  0  0  0  0  0  0  0  0  0  0
   -6.1286  -13.4628   16.2943 H   0  0  0  0  0  0  0  0  0  0  0  0
   -4.8934  -11.4817   14.8516 H   0  0  0  0  0  0  0  0  0  0  0  0
   -2.6846  -15.0038   14.4143 H   0  0  0  0  0  0  0  0  0  0  0  0
   -8.6464  -17.9903   20.5946 H   0  0  0  0  0  0  0  0  0  0  0  0
   -8.8943  -19.9572   22.0792 H   0  0  0  0  0  0  0  0  0  0  0  0
   -8.0364  -22.4640   22.5648 H   0  0  0  0  0  0  0  0  0  0  0  0
   -6.0919  -24.0090   21.3591 H   0  0  0  0  0  0  0  0  0  0  0  0
   -5.5640  -20.0727   18.3806 H   0  0  0  0  0  0  0  0  0  0  0  0
  1  2  2  0
  2  3  1  0
  3  4  1  0
  4  5  1  0
  5  6  1  0
  6  7  1  0
  7  8  2  0
  8  9  1  0
  9 10  2  0
  2 11  1  0
 11 12  1  0
 12 13  2  0
 13 14  1  0
 14 15  1  0
 15 16  2  0
 16 17  1  0
 17 18  2  0
 18 19  1  0
 10  6  1  0
 19 11  2  0
 18 14  1  0
  4 20  1  0
  4 21  1  0
  5 22  1  0
  5 23  1  0
  7 24  1  0
  8 25  1  0
 10 26  1  0
 12 27  1  0
 13 28  1  0
 15 29  1  0
 16 30  1  0
 19 31  1  0
M  END
>  <Energy>  (989) 
38.260043992730658

>  <compound_id>  (989) 
36295

>  <target_id>  (989) 
1

>  <reference_id>  (989) 
63

>  <inspiration_ids>  (989) 
[63, 45]

>  <energy_score>  (989) 
-14.079945702946702

>  <distance_score>  (989) 
14.703962443714897

>  <path>  (989) 
/opt/xchem-fragalysis-2/maxwin/BulkDock/SCRATCH/511017/C36295-P63/C36295-P63.minimised.mol

>  <scratch_subdir>  (989) 
/opt/xchem-fragalysis-2/maxwin/BulkDock/SCRATCH/511017/C36295-P63

>  <fragmenstein_runtime>  (989) 
20.04525327682495

>  <fragmenstein_outcome>  (989) 
too moved

>  <fragmenstein_mode>  (989) 
expansion

>  <fragmenstein_error>  (989) 


$$$$
C36295-P45
     RDKit          3D

 31 33  0  0  0  0  0  0  0  0999 V2000
   -3.2558  -17.0729   18.3359 O   0  0  0  0  0  0  0  0  0  0  0  0
   -4.0707  -16.8026   17.4238 C   0  0  0  0  0  0  0  0  0  0  0  0
   -3.8263  -15.6322   16.5822 O   0  0  0  0  0  0  0  0  0  0  0  0
   -2.5270  -14.3835   16.6452 C   0  0  0  0  0  0  0  0  0  0  0  0
   -0.8484  -13.7021   17.3534 C   0  0  0  0  0  0  0  0  0  0  0  0
    1.0251  -13.7960   16.9090 N   0  0  0  0  0  0  0  0  0  0  0  0
    1.8258  -12.6272   15.7431 C   0  0  0  0  0  0  0  0  0  0  0  0
    3.0744  -11.7141   16.5565 C   0  0  0  0  0  0  0  0  0  0  0  0
    3.1949  -12.6716   17.9479 N   0  0  0  0  0  0  0  0  0  0  0  0
    2.2305  -13.9357   17.9812 C   0  0  0  0  0  0  0  0  0  0  0  0
   -5.1193  -17.8853   17.3312 C   0  0  0  0  0  0  0  0  0  0  0  0
   -4.6100  -19.2485   16.9999 C   0  0  0  0  0  0  0  0  0  0  0  0
   -4.9190  -20.3221   17.7587 C   0  0  0  0  0  0  0  0  0  0  0  0
   -5.7897  -20.1744   18.8307 N   0  0  0  0  0  0  0  0  0  0  0  0
   -6.1915  -21.0821   19.7822 C   0  0  0  0  0  0  0  0  0  0  0  0
   -7.0338  -20.3878   20.6189 C   0  0  0  0  0  0  0  0  0  0  0  0
   -7.1781  -19.0867   20.1965 N   0  0  0  0  0  0  0  0  0  0  0  0
   -6.4200  -18.9715   19.1192 C   0  0  0  0  0  0  0  0  0  0  0  0
   -6.0631  -17.8198   18.3192 C   0  0  0  0  0  0  0  0  0  0  0  0
   -2.3864  -14.3774   15.5595 H   0  0  0  0  0  0  0  0  0  0  0  0
   -2.1176  -15.1840   17.2096 H   0  0  0  0  0  0  0  0  0  0  0  0
   -0.9711  -12.6738   17.6452 H   0  0  0  0  0  0  0  0  0  0  0  0
   -0.7587  -14.2136   16.4059 H   0  0  0  0  0  0  0  0  0  0  0  0
    1.6890  -12.7702   14.6582 H   0  0  0  0  0  0  0  0  0  0  0  0
    3.8744  -11.0536   16.2521 H   0  0  0  0  0  0  0  0  0  0  0  0
    2.4753  -14.8591   18.4763 H   0  0  0  0  0  0  0  0  0  0  0  0
   -3.8948  -19.3228   16.1842 H   0  0  0  0  0  0  0  0  0  0  0  0
   -4.5006  -21.3056   17.5850 H   0  0  0  0  0  0  0  0  0  0  0  0
   -5.8482  -22.1060   19.7813 H   0  0  0  0  0  0  0  0  0  0  0  0
   -7.5499  -20.7528   21.4974 H   0  0  0  0  0  0  0  0  0  0  0  0
   -6.3889  -16.8764   18.7280 H   0  0  0  0  0  0  0  0  0  0  0  0
  1  2  2  0
  2  3  1  0
  3  4  1  0
  4  5  1  0
  5  6  1  0
  6  7  1  0
  7  8  2  0
  8  9  1  0
  9 10  2  0
  2 11  1  0
 11 12  1  0
 12 13  2  0
 13 14  1  0
 14 15  1  0
 15 16  2  0
 16 17  1  0
 17 18  2  0
 18 19  1  0
 10  6  1  0
 19 11  2  0
 18 14  1  0
  4 20  1  0
  4 21  1  0
  5 22  1  0
  5 23  1  0
  7 24  1  0
  8 25  1  0
 10 26  1  0
 12 27  1  0
 13 28  1  0
 15 29  1  0
 16 30  1  0
 19 31  1  0
M  END
>  <Energy>  (990) 
539.51055118971351

>  <compound_id>  (990) 
36295

>  <target_id>  (990) 
1

>  <reference_id>  (990) 
45

>  <inspiration_ids>  (990) 
[63, 45]

>  <energy_score>  (990) 
487.1705614940199

>  <distance_score>  (990) 
13.165243690474927

>  <path>  (990) 
/opt/xchem-fragalysis-2/maxwin/BulkDock/SCRATCH/511017/C36295-P45/C36295-P45.minimised.mol

>  <scratch_subdir>  (990) 
/opt/xchem-fragalysis-2/maxwin/BulkDock/SCRATCH/511017/C36295-P45

>  <fragmenstein_runtime>  (990) 
20.44015860557556

>  <fragmenstein_outcome>  (990) 
too moved

>  <fragmenstein_mode>  (990) 
expansion

>  <fragmenstein_error>  (990) 


$$$$
C36277-P63
     RDKit          3D

 34 36  0  0  0  0  0  0  0  0999 V2000
    8.2065   -9.0239   24.3795 O   0  0  0  0  0  0  0  0  0  0  0  0
    7.8528  -10.0143   25.0013 C   0  0  0  0  0  0  0  0  0  0  0  0
    8.2942  -11.2392   24.6593 O   0  0  0  0  0  0  0  0  0  0  0  0
    6.9181  -10.0174   26.1737 C   0  0  0  0  0  0  0  0  0  0  0  0
    5.6269  -10.5721   25.8364 N   0  0  0  0  0  0  0  0  0  0  0  0
    4.6419   -9.9602   25.1176 C   0  0  0  0  0  0  0  0  0  0  0  0
    3.5775  -10.7333   25.0204 N   0  0  0  0  0  0  0  0  0  0  0  0
    3.8803  -11.8921   25.7096 C   0  0  0  0  0  0  0  0  0  0  0  0
    3.0179  -12.9623   25.7377 N   0  0  0  0  0  0  0  0  0  0  0  0
    3.0531  -14.2311   26.4523 C   0  0  0  0  0  0  0  0  0  0  0  0
    4.0299  -14.7987   27.5247 O   0  0  0  0  0  0  0  0  0  0  0  0
    2.2910  -15.0043   26.4023 N   0  0  0  0  0  0  0  0  0  0  0  0
    1.9371  -16.3932   26.9181 C   0  0  0  0  0  0  0  0  0  0  0  0
    3.0433  -17.3303   27.2094 C   0  0  0  0  0  0  0  0  0  0  0  0
    2.8270  -18.5148   27.8115 C   0  0  0  0  0  0  0  0  0  0  0  0
    1.5370  -18.8805   28.1468 N   0  0  0  0  0  0  0  0  0  0  0  0
    1.0873  -19.9741   28.8421 C   0  0  0  0  0  0  0  0  0  0  0  0
   -0.2794  -19.8502   28.8599 C   0  0  0  0  0  0  0  0  0  0  0  0
   -0.6735  -18.7155   28.1829 N   0  0  0  0  0  0  0  0  0  0  0  0
    0.4325  -18.1164   27.8052 C   0  0  0  0  0  0  0  0  0  0  0  0
    0.6623  -16.8515   27.1663 C   0  0  0  0  0  0  0  0  0  0  0  0
    5.1366  -11.7802   26.2604 C   0  0  0  0  0  0  0  0  0  0  0  0
    8.8365  -11.1130   23.8516 H   0  0  0  0  0  0  0  0  0  0  0  0
    7.3586  -10.5861   26.9988 H   0  0  0  0  0  0  0  0  0  0  0  0
    6.7636   -8.9901   26.5204 H   0  0  0  0  0  0  0  0  0  0  0  0
    4.7398   -8.9665   24.7016 H   0  0  0  0  0  0  0  0  0  0  0  0
    2.1725  -12.9439   25.1834 H   0  0  0  0  0  0  0  0  0  0  0  0
    1.4169  -15.4005   26.1115 H   0  0  0  0  0  0  0  0  0  0  0  0
    4.0534  -17.0404   26.9350 H   0  0  0  0  0  0  0  0  0  0  0  0
    3.6262  -19.1996   28.0642 H   0  0  0  0  0  0  0  0  0  0  0  0
    1.7530  -20.7293   29.2318 H   0  0  0  0  0  0  0  0  0  0  0  0
   -0.9965  -20.5293   29.3015 H   0  0  0  0  0  0  0  0  0  0  0  0
   -0.2189  -16.2419   26.9940 H   0  0  0  0  0  0  0  0  0  0  0  0
    5.7174  -12.4721   26.8564 H   0  0  0  0  0  0  0  0  0  0  0  0
  1  2  2  0
  2  3  1  0
  2  4  1  0
  4  5  1  0
  5  6  1  0
  6  7  2  0
  7  8  1  0
  8  9  1  0
  9 10  1  0
 10 11  2  0
 10 12  1  0
 12 13  1  0
 13 14  1  0
 14 15  2  0
 15 16  1  0
 16 17  1  0
 17 18  2  0
 18 19  1  0
 19 20  2  0
 20 21  1  0
  8 22  2  0
 22  5  1  0
 21 13  2  0
 20 16  1  0
  3 23  1  0
  4 24  1  0
  4 25  1  0
  6 26  1  0
  9 27  1  0
 12 28  1  0
 14 29  1  0
 15 30  1  0
 17 31  1  0
 18 32  1  0
 21 33  1  0
 22 34  1  0
M  END
>  <Energy>  (991) 
148.11265386469174

>  <compound_id>  (991) 
36277

>  <target_id>  (991) 
1

>  <reference_id>  (991) 
63

>  <inspiration_ids>  (991) 
[63, 45]

>  <energy_score>  (991) 
162.4469042838307

>  <distance_score>  (991) 
14.143483998509586

>  <path>  (991) 
/opt/xchem-fragalysis-2/maxwin/BulkDock/SCRATCH/511017/C36277-P63/C36277-P63.minimised.mol

>  <scratch_subdir>  (991) 
/opt/xchem-fragalysis-2/maxwin/BulkDock/SCRATCH/511017/C36277-P63

>  <fragmenstein_runtime>  (991) 
24.61734390258789

>  <fragmenstein_outcome>  (991) 
too moved

>  <fragmenstein_mode>  (991) 
expansion

>  <fragmenstein_error>  (991) 


$$$$
C36277-P45
     RDKit          3D

 34 36  0  0  0  0  0  0  0  0999 V2000
   -1.0699   -4.2648   20.0435 O   0  0  0  0  0  0  0  0  0  0  0  0
    0.0114   -4.4571   19.5164 C   0  0  0  0  0  0  0  0  0  0  0  0
    0.4988   -3.5542   18.6360 O   0  0  0  0  0  0  0  0  0  0  0  0
    0.9532   -5.6127   19.7100 C   0  0  0  0  0  0  0  0  0  0  0  0
    0.4539   -6.5922   20.6538 N   0  0  0  0  0  0  0  0  0  0  0  0
    0.6213   -6.5712   22.0055 C   0  0  0  0  0  0  0  0  0  0  0  0
    0.1142   -7.6535   22.5653 N   0  0  0  0  0  0  0  0  0  0  0  0
   -0.4577   -8.3885   21.5518 C   0  0  0  0  0  0  0  0  0  0  0  0
   -1.1027   -9.6102   21.6770 N   0  0  0  0  0  0  0  0  0  0  0  0
   -1.5060  -10.4054   22.9267 C   0  0  0  0  0  0  0  0  0  0  0  0
   -1.4271  -10.1179   24.0701 O   0  0  0  0  0  0  0  0  0  0  0  0
   -2.0606  -11.6904   22.2597 N   0  0  0  0  0  0  0  0  0  0  0  0
   -2.6826  -12.8124   22.8190 C   0  0  0  0  0  0  0  0  0  0  0  0
   -3.0637  -13.9025   21.8904 C   0  0  0  0  0  0  0  0  0  0  0  0
   -3.7736  -14.9662   22.3189 C   0  0  0  0  0  0  0  0  0  0  0  0
   -4.1565  -15.0260   23.6507 N   0  0  0  0  0  0  0  0  0  0  0  0
   -5.0091  -15.8921   24.2817 C   0  0  0  0  0  0  0  0  0  0  0  0
   -5.1135  -15.4211   25.5714 C   0  0  0  0  0  0  0  0  0  0  0  0
   -4.2778  -14.3596   25.7761 N   0  0  0  0  0  0  0  0  0  0  0  0
   -3.7626  -14.0847   24.5934 C   0  0  0  0  0  0  0  0  0  0  0  0
   -2.9790  -12.9691   24.1334 C   0  0  0  0  0  0  0  0  0  0  0  0
   -0.2150   -7.7468   20.3496 C   0  0  0  0  0  0  0  0  0  0  0  0
   -0.2004   -2.8658   18.5890 H   0  0  0  0  0  0  0  0  0  0  0  0
    1.1108   -6.1200   18.7529 H   0  0  0  0  0  0  0  0  0  0  0  0
    1.9098   -5.2424   20.0925 H   0  0  0  0  0  0  0  0  0  0  0  0
    1.1148   -5.7657   22.5340 H   0  0  0  0  0  0  0  0  0  0  0  0
   -1.2294  -10.1811   20.8625 H   0  0  0  0  0  0  0  0  0  0  0  0
   -2.0552  -11.5781   21.2616 H   0  0  0  0  0  0  0  0  0  0  0  0
   -2.7733  -13.8250   20.8482 H   0  0  0  0  0  0  0  0  0  0  0  0
   -4.0992  -15.7657   21.6658 H   0  0  0  0  0  0  0  0  0  0  0  0
   -5.4976  -16.7066   23.7664 H   0  0  0  0  0  0  0  0  0  0  0  0
   -5.7346  -15.7936   26.3747 H   0  0  0  0  0  0  0  0  0  0  0  0
   -2.7230  -12.2105   24.8657 H   0  0  0  0  0  0  0  0  0  0  0  0
   -0.4663   -8.0152   19.3337 H   0  0  0  0  0  0  0  0  0  0  0  0
  1  2  2  0
  2  3  1  0
  2  4  1  0
  4  5  1  0
  5  6  1  0
  6  7  2  0
  7  8  1  0
  8  9  1  0
  9 10  1  0
 10 11  2  0
 10 12  1  0
 12 13  1  0
 13 14  1  0
 14 15  2  0
 15 16  1  0
 16 17  1  0
 17 18  2  0
 18 19  1  0
 19 20  2  0
 20 21  1  0
  8 22  2  0
 22  5  1  0
 21 13  2  0
 20 16  1  0
  3 23  1  0
  4 24  1  0
  4 25  1  0
  6 26  1  0
  9 27  1  0
 12 28  1  0
 14 29  1  0
 15 30  1  0
 17 31  1  0
 18 32  1  0
 21 33  1  0
 22 34  1  0
M  END
>  <Energy>  (992) 
-41.81656204903927

>  <compound_id>  (992) 
36277

>  <target_id>  (992) 
1

>  <reference_id>  (992) 
45

>  <inspiration_ids>  (992) 
[63, 45]

>  <energy_score>  (992) 
-27.482311629888613

>  <distance_score>  (992) 
14.611094784891693

>  <path>  (992) 
/opt/xchem-fragalysis-2/maxwin/BulkDock/SCRATCH/511017/C36277-P45/C36277-P45.minimised.mol

>  <scratch_subdir>  (992) 
/opt/xchem-fragalysis-2/maxwin/BulkDock/SCRATCH/511017/C36277-P45

>  <fragmenstein_runtime>  (992) 
23.91566252708435

>  <fragmenstein_outcome>  (992) 
too moved

>  <fragmenstein_mode>  (992) 
expansion

>  <fragmenstein_error>  (992) 


$$$$
C36272-P63
     RDKit          3D

 41 44  0  0  0  0  0  0  0  0999 V2000
   -3.7281  -16.8337   20.7824 O   0  0  0  0  0  0  0  0  0  0  0  0
   -2.8553  -17.5120   20.4130 C   0  0  0  0  0  0  0  0  0  0  0  0
   -2.7916  -18.9318   20.2679 N   0  0  0  0  0  0  0  0  0  0  0  0
   -3.7569  -19.8949   20.4273 C   0  0  0  0  0  0  0  0  0  0  0  0
   -3.9208  -20.8237   19.2918 C   0  0  0  0  0  0  0  0  0  0  0  0
   -4.9942  -21.6410   19.2365 C   0  0  0  0  0  0  0  0  0  0  0  0
   -5.9111  -21.6271   20.2849 N   0  0  0  0  0  0  0  0  0  0  0  0
   -6.9759  -22.4554   20.5299 C   0  0  0  0  0  0  0  0  0  0  0  0
   -7.5188  -22.0145   21.7115 C   0  0  0  0  0  0  0  0  0  0  0  0
   -6.8271  -20.9317   22.1913 N   0  0  0  0  0  0  0  0  0  0  0  0
   -5.8393  -20.7324   21.3450 C   0  0  0  0  0  0  0  0  0  0  0  0
   -4.7454  -19.8081   21.3530 C   0  0  0  0  0  0  0  0  0  0  0  0
   -1.4771  -17.0223   19.8317 N   0  0  0  0  0  0  0  0  0  0  0  0
   -1.0368  -15.7772   19.5400 C   0  0  0  0  0  0  0  0  0  0  0  0
    0.9075  -16.1374   19.2102 C   0  0  0  0  0  0  0  0  0  0  0  0
    2.1441  -14.7780   18.6143 C   0  0  0  0  0  0  0  0  0  0  0  0
    3.6223  -13.8208   18.2673 N   0  0  0  0  0  0  0  0  0  0  0  0
    3.9694  -12.2535   17.3148 C   0  0  0  0  0  0  0  0  0  0  0  0
    3.2728  -11.2147   17.3751 C   0  0  0  0  0  0  0  0  0  0  0  0
    3.0978  -12.0889   18.3214 N   0  0  0  0  0  0  0  0  0  0  0  0
    4.1368  -12.8726   19.0459 C   0  0  0  0  0  0  0  0  0  0  0  0
    1.5286  -15.5337   20.4092 C   0  0  0  0  0  0  0  0  0  0  0  0
   -0.0492  -16.7371   20.9254 C   0  0  0  0  0  0  0  0  0  0  0  0
   -1.9124  -19.1785   19.8421 H   0  0  0  0  0  0  0  0  0  0  0  0
   -3.1831  -20.8181   18.4954 H   0  0  0  0  0  0  0  0  0  0  0  0
   -5.1605  -22.3481   18.4339 H   0  0  0  0  0  0  0  0  0  0  0  0
   -7.2409  -23.2648   19.8658 H   0  0  0  0  0  0  0  0  0  0  0  0
   -8.3746  -22.4150   22.2392 H   0  0  0  0  0  0  0  0  0  0  0  0
   -4.7413  -19.0461   22.1232 H   0  0  0  0  0  0  0  0  0  0  0  0
   -1.6575  -15.2110   20.2585 H   0  0  0  0  0  0  0  0  0  0  0  0
   -1.5877  -15.4135   18.6625 H   0  0  0  0  0  0  0  0  0  0  0  0
    1.2835  -16.9980   18.4234 H   0  0  0  0  0  0  0  0  0  0  0  0
    0.8639  -17.2018   19.4377 H   0  0  0  0  0  0  0  0  0  0  0  0
    2.7235  -15.5115   18.0342 H   0  0  0  0  0  0  0  0  0  0  0  0
    4.3655  -12.2433   16.3098 H   0  0  0  0  0  0  0  0  0  0  0  0
    3.0210  -10.2139   17.1559 H   0  0  0  0  0  0  0  0  0  0  0  0
    4.4646  -12.8351   20.0782 H   0  0  0  0  0  0  0  0  0  0  0  0
    2.4131  -15.0248   20.7823 H   0  0  0  0  0  0  0  0  0  0  0  0
    1.1039  -14.9728   21.1897 H   0  0  0  0  0  0  0  0  0  0  0  0
   -0.3487  -16.1354   21.7351 H   0  0  0  0  0  0  0  0  0  0  0  0
    0.2238  -17.7152   21.2757 H   0  0  0  0  0  0  0  0  0  0  0  0
  1  2  2  0
  2  3  1  0
  3  4  1  0
  4  5  1  0
  5  6  2  0
  6  7  1  0
  7  8  1  0
  8  9  2  0
  9 10  1  0
 10 11  2  0
 11 12  1  0
  2 13  1  0
 13 14  1  0
 14 15  1  0
 15 16  1  0
 16 17  1  0
 17 18  1  0
 18 19  2  0
 19 20  1  0
 20 21  2  0
 16 22  1  0
 22 23  1  0
 12  4  2  0
 23 13  1  0
 11  7  1  0
 21 17  1  0
  3 24  1  0
  5 25  1  0
  6 26  1  0
  8 27  1  0
  9 28  1  0
 12 29  1  0
 14 30  1  0
 14 31  1  0
 15 32  1  0
 15 33  1  0
 16 34  1  0
 18 35  1  0
 19 36  1  0
 21 37  1  0
 22 38  1  0
 22 39  1  0
 23 40  1  0
 23 41  1  0
M  END
>  <Energy>  (993) 
1043.5724846981466

>  <compound_id>  (993) 
36272

>  <target_id>  (993) 
1

>  <reference_id>  (993) 
63

>  <inspiration_ids>  (993) 
[63, 45]

>  <energy_score>  (993) 
1030.767663919425

>  <distance_score>  (993) 
11.525458268805268

>  <path>  (993) 
/opt/xchem-fragalysis-2/maxwin/BulkDock/SCRATCH/511017/C36272-P63/C36272-P63.minimised.mol

>  <scratch_subdir>  (993) 
/opt/xchem-fragalysis-2/maxwin/BulkDock/SCRATCH/511017/C36272-P63

>  <fragmenstein_runtime>  (993) 
30.750370740890503

>  <fragmenstein_outcome>  (993) 
too moved

>  <fragmenstein_mode>  (993) 
expansion

>  <fragmenstein_error>  (993) 


$$$$
C36272-P45
     RDKit          3D

 41 44  0  0  0  0  0  0  0  0999 V2000
   -2.5084  -17.8174   18.2798 O   0  0  0  0  0  0  0  0  0  0  0  0
   -2.2653  -17.3731   19.3177 C   0  0  0  0  0  0  0  0  0  0  0  0
   -2.5782  -17.8409   20.5841 N   0  0  0  0  0  0  0  0  0  0  0  0
   -3.3606  -18.9247   20.9919 C   0  0  0  0  0  0  0  0  0  0  0  0
   -4.4266  -18.5751   21.9640 C   0  0  0  0  0  0  0  0  0  0  0  0
   -5.5338  -19.3144   22.1110 C   0  0  0  0  0  0  0  0  0  0  0  0
   -5.7193  -20.4202   21.3160 N   0  0  0  0  0  0  0  0  0  0  0  0
   -6.7332  -21.3402   21.3129 C   0  0  0  0  0  0  0  0  0  0  0  0
   -6.4517  -22.1811   20.2656 C   0  0  0  0  0  0  0  0  0  0  0  0
   -5.3112  -21.7798   19.6140 N   0  0  0  0  0  0  0  0  0  0  0  0
   -4.8590  -20.7329   20.2801 C   0  0  0  0  0  0  0  0  0  0  0  0
   -3.6564  -19.9463   20.1413 C   0  0  0  0  0  0  0  0  0  0  0  0
   -1.5394  -15.8794   19.6177 N   0  0  0  0  0  0  0  0  0  0  0  0
   -1.1641  -14.7232   18.6136 C   0  0  0  0  0  0  0  0  0  0  0  0
    0.4127  -13.7954   17.7551 C   0  0  0  0  0  0  0  0  0  0  0  0
    2.1554  -13.7691   18.1179 C   0  0  0  0  0  0  0  0  0  0  0  0
    3.2573  -12.1667   17.8888 N   0  0  0  0  0  0  0  0  0  0  0  0
    3.8160  -11.7951   16.7066 C   0  0  0  0  0  0  0  0  0  0  0  0
    3.6362  -10.7347   16.0203 C   0  0  0  0  0  0  0  0  0  0  0  0
    3.4186   -9.8233   16.8929 N   0  0  0  0  0  0  0  0  0  0  0  0
    2.7793  -10.4864   17.7337 C   0  0  0  0  0  0  0  0  0  0  0  0
    2.0827  -15.2006   18.7716 C   0  0  0  0  0  0  0  0  0  0  0  0
    0.4251  -16.0922   19.7248 C   0  0  0  0  0  0  0  0  0  0  0  0
   -2.2874  -17.1682   21.2529 H   0  0  0  0  0  0  0  0  0  0  0  0
   -4.4435  -17.5937   22.4252 H   0  0  0  0  0  0  0  0  0  0  0  0
   -6.3526  -19.0151   22.7422 H   0  0  0  0  0  0  0  0  0  0  0  0
   -7.5477  -21.3180   22.0186 H   0  0  0  0  0  0  0  0  0  0  0  0
   -7.0138  -23.0434   19.9297 H   0  0  0  0  0  0  0  0  0  0  0  0
   -3.0574  -20.1392   19.2566 H   0  0  0  0  0  0  0  0  0  0  0  0
   -1.8284  -14.9815   17.7365 H   0  0  0  0  0  0  0  0  0  0  0  0
   -1.8242  -13.8396   18.6827 H   0  0  0  0  0  0  0  0  0  0  0  0
    0.5928  -14.1703   16.7493 H   0  0  0  0  0  0  0  0  0  0  0  0
   -0.2204  -12.9259   17.7078 H   0  0  0  0  0  0  0  0  0  0  0  0
    3.1263  -14.2440   17.9078 H   0  0  0  0  0  0  0  0  0  0  0  0
    4.3557  -12.2909   15.9899 H   0  0  0  0  0  0  0  0  0  0  0  0
    3.9219  -10.7473   14.9556 H   0  0  0  0  0  0  0  0  0  0  0  0
    2.2595   -9.9175   18.4998 H   0  0  0  0  0  0  0  0  0  0  0  0
    2.6283  -15.8671   18.1064 H   0  0  0  0  0  0  0  0  0  0  0  0
    2.5615  -14.9161   19.6950 H   0  0  0  0  0  0  0  0  0  0  0  0
    0.6108  -16.0746   20.8056 H   0  0  0  0  0  0  0  0  0  0  0  0
    0.5003  -17.1795   19.7377 H   0  0  0  0  0  0  0  0  0  0  0  0
  1  2  2  0
  2  3  1  0
  3  4  1  0
  4  5  1  0
  5  6  2  0
  6  7  1  0
  7  8  1  0
  8  9  2  0
  9 10  1  0
 10 11  2  0
 11 12  1  0
  2 13  1  0
 13 14  1  0
 14 15  1  0
 15 16  1  0
 16 17  1  0
 17 18  1  0
 18 19  2  0
 19 20  1  0
 20 21  2  0
 16 22  1  0
 22 23  1  0
 12  4  2  0
 23 13  1  0
 11  7  1  0
 21 17  1  0
  3 24  1  0
  5 25  1  0
  6 26  1  0
  8 27  1  0
  9 28  1  0
 12 29  1  0
 14 30  1  0
 14 31  1  0
 15 32  1  0
 15 33  1  0
 16 34  1  0
 18 35  1  0
 19 36  1  0
 21 37  1  0
 22 38  1  0
 22 39  1  0
 23 40  1  0
 23 41  1  0
M  END
>  <Energy>  (994) 
664.0223455166639

>  <compound_id>  (994) 
36272

>  <target_id>  (994) 
1

>  <reference_id>  (994) 
45

>  <inspiration_ids>  (994) 
[63, 45]

>  <energy_score>  (994) 
651.2175247379279

>  <distance_score>  (994) 
11.50789644792569

>  <path>  (994) 
/opt/xchem-fragalysis-2/maxwin/BulkDock/SCRATCH/511017/C36272-P45/C36272-P45.minimised.mol

>  <scratch_subdir>  (994) 
/opt/xchem-fragalysis-2/maxwin/BulkDock/SCRATCH/511017/C36272-P45

>  <fragmenstein_runtime>  (994) 
28.029657125473022

>  <fragmenstein_outcome>  (994) 
too moved

>  <fragmenstein_mode>  (994) 
expansion

>  <fragmenstein_error>  (994) 


$$$$
C36289-P63
     RDKit          3D

 41 43  0  0  0  0  0  0  0  0999 V2000
    1.9555   -6.2653   14.1985 C   0  0  0  0  0  0  0  0  0  0  0  0
    0.7212   -6.0834   15.0850 C   0  0  0  0  0  0  0  0  0  0  0  0
    0.0101   -4.7756   14.7355 C   0  0  0  0  0  0  0  0  0  0  0  0
    1.1020   -6.0962   16.5413 C   0  0  0  0  0  0  0  0  0  0  0  0
    2.1917   -5.5292   17.0308 N   0  0  0  0  0  0  0  0  0  0  0  0
    2.1002   -5.6655   18.3815 C   0  0  0  0  0  0  0  0  0  0  0  0
    0.9655   -6.3657   18.7274 C   0  0  0  0  0  0  0  0  0  0  0  0
    0.3189   -6.6541   17.5573 N   0  0  0  0  0  0  0  0  0  0  0  0
   -1.0015   -7.2788   17.3776 C   0  0  0  0  0  0  0  0  0  0  0  0
   -1.8628   -7.8616   18.5594 C   0  0  0  0  0  0  0  0  0  0  0  0
   -1.7805   -9.3150   18.7626 N   0  0  0  0  0  0  0  0  0  0  0  0
   -2.7834  -10.2754   19.1510 C   0  0  0  0  0  0  0  0  0  0  0  0
   -3.9608  -10.1462   19.3306 O   0  0  0  0  0  0  0  0  0  0  0  0
   -2.1999  -11.7387   19.2741 C   0  0  0  0  0  0  0  0  0  0  0  0
   -1.9805  -12.5232   18.0941 C   0  0  0  0  0  0  0  0  0  0  0  0
   -1.6966  -13.8483   17.9876 C   0  0  0  0  0  0  0  0  0  0  0  0
   -1.7434  -14.8364   19.3676 N   0  0  0  0  0  0  0  0  0  0  0  0
   -2.1966  -16.2061   19.5077 C   0  0  0  0  0  0  0  0  0  0  0  0
   -3.2276  -16.1427   20.4201 C   0  0  0  0  0  0  0  0  0  0  0  0
   -3.0816  -14.8474   21.2146 N   0  0  0  0  0  0  0  0  0  0  0  0
   -2.2832  -14.0004   20.5127 C   0  0  0  0  0  0  0  0  0  0  0  0
   -2.4276  -12.4616   20.3819 C   0  0  0  0  0  0  0  0  0  0  0  0
    2.4953   -7.1813   14.4595 H   0  0  0  0  0  0  0  0  0  0  0  0
    2.6564   -5.4290   14.3025 H   0  0  0  0  0  0  0  0  0  0  0  0
    1.6678   -6.3320   13.1438 H   0  0  0  0  0  0  0  0  0  0  0  0
    0.0379   -6.9109   14.8721 H   0  0  0  0  0  0  0  0  0  0  0  0
    0.6555   -3.9077   14.9130 H   0  0  0  0  0  0  0  0  0  0  0  0
   -0.8938   -4.6435   15.3401 H   0  0  0  0  0  0  0  0  0  0  0  0
   -0.2879   -4.7655   13.6816 H   0  0  0  0  0  0  0  0  0  0  0  0
    2.8488   -5.2488   19.0416 H   0  0  0  0  0  0  0  0  0  0  0  0
    0.5801   -6.6521   19.6952 H   0  0  0  0  0  0  0  0  0  0  0  0
   -0.8726   -8.0517   16.6142 H   0  0  0  0  0  0  0  0  0  0  0  0
   -1.6017   -6.4744   16.9322 H   0  0  0  0  0  0  0  0  0  0  0  0
   -2.9191   -7.6481   18.3605 H   0  0  0  0  0  0  0  0  0  0  0  0
   -1.6073   -7.3871   19.5107 H   0  0  0  0  0  0  0  0  0  0  0  0
   -0.8695   -9.7596   18.7887 H   0  0  0  0  0  0  0  0  0  0  0  0
   -2.5543  -12.0847   17.3083 H   0  0  0  0  0  0  0  0  0  0  0  0
   -1.9425  -14.3570   17.0488 H   0  0  0  0  0  0  0  0  0  0  0  0
   -2.0222  -16.9606   18.7601 H   0  0  0  0  0  0  0  0  0  0  0  0
   -3.9635  -16.8757   20.7298 H   0  0  0  0  0  0  0  0  0  0  0  0
   -3.0009  -11.8721   21.0841 H   0  0  0  0  0  0  0  0  0  0  0  0
  1  2  1  0
  2  3  1  0
  2  4  1  0
  4  5  2  0
  5  6  1  0
  6  7  2  0
  7  8  1  0
  8  9  1  0
  9 10  1  0
 10 11  1  0
 11 12  1  0
 12 13  2  0
 12 14  1  0
 14 15  1  0
 15 16  2  0
 16 17  1  0
 17 18  1  0
 18 19  2  0
 19 20  1  0
 20 21  2  0
 21 22  1  0
  8  4  1  0
 22 14  2  0
 21 17  1  0
  1 23  1  0
  1 24  1  0
  1 25  1  0
  2 26  1  0
  3 27  1  0
  3 28  1  0
  3 29  1  0
  6 30  1  0
  7 31  1  0
  9 32  1  0
  9 33  1  0
 10 34  1  0
 10 35  1  0
 11 36  1  0
 15 37  1  0
 16 38  1  0
 18 39  1  0
 19 40  1  0
 22 41  1  0
M  END
>  <Energy>  (995) 
130.25977871396279

>  <compound_id>  (995) 
36289

>  <target_id>  (995) 
1

>  <reference_id>  (995) 
63

>  <inspiration_ids>  (995) 
[63, 45]

>  <energy_score>  (995) 
67.23011279903926

>  <distance_score>  (995) 
15.20491224205496

>  <path>  (995) 
/opt/xchem-fragalysis-2/maxwin/BulkDock/SCRATCH/511017/C36289-P63/C36289-P63.minimised.mol

>  <scratch_subdir>  (995) 
/opt/xchem-fragalysis-2/maxwin/BulkDock/SCRATCH/511017/C36289-P63

>  <fragmenstein_runtime>  (995) 
33.17610788345337

>  <fragmenstein_outcome>  (995) 
too moved

>  <fragmenstein_mode>  (995) 
expansion

>  <fragmenstein_error>  (995) 


$$$$
C36289-P45
     RDKit          3D

 41 43  0  0  0  0  0  0  0  0999 V2000
    3.6455  -11.6373   16.3914 C   0  0  0  0  0  0  0  0  0  0  0  0
    3.1853  -12.2900   17.9236 C   0  0  0  0  0  0  0  0  0  0  0  0
    2.6921  -10.3074   17.8683 C   0  0  0  0  0  0  0  0  0  0  0  0
    1.9307  -14.0086   18.2306 C   0  0  0  0  0  0  0  0  0  0  0  0
    2.8597  -14.3555   19.1042 N   0  0  0  0  0  0  0  0  0  0  0  0
    3.5901  -14.6930   18.1571 C   0  0  0  0  0  0  0  0  0  0  0  0
    2.7769  -15.7357   18.0516 C   0  0  0  0  0  0  0  0  0  0  0  0
    1.3546  -15.7719   18.9243 N   0  0  0  0  0  0  0  0  0  0  0  0
    0.2999  -17.2387   20.0236 C   0  0  0  0  0  0  0  0  0  0  0  0
   -0.3322  -19.1718   20.9775 C   0  0  0  0  0  0  0  0  0  0  0  0
   -1.6481  -20.7957   21.3899 N   0  0  0  0  0  0  0  0  0  0  0  0
   -1.6723  -22.2637   22.8028 C   0  0  0  0  0  0  0  0  0  0  0  0
   -0.7760  -22.0884   23.5970 O   0  0  0  0  0  0  0  0  0  0  0  0
   -3.0894  -24.2563   22.9120 C   0  0  0  0  0  0  0  0  0  0  0  0
   -2.7567  -25.5795   24.3075 C   0  0  0  0  0  0  0  0  0  0  0  0
   -3.4359  -25.6266   25.5538 C   0  0  0  0  0  0  0  0  0  0  0  0
   -4.6664  -24.8546   25.8216 N   0  0  0  0  0  0  0  0  0  0  0  0
   -5.3868  -24.7903   26.9868 C   0  0  0  0  0  0  0  0  0  0  0  0
   -6.4747  -24.0114   26.7288 C   0  0  0  0  0  0  0  0  0  0  0  0
   -6.4964  -23.5672   25.4207 N   0  0  0  0  0  0  0  0  0  0  0  0
   -5.3884  -23.9164   24.7665 C   0  0  0  0  0  0  0  0  0  0  0  0
   -4.8221  -23.9735   23.0262 C   0  0  0  0  0  0  0  0  0  0  0  0
    3.6305  -10.6084   16.1576 H   0  0  0  0  0  0  0  0  0  0  0  0
    3.0144  -12.0463   15.6931 H   0  0  0  0  0  0  0  0  0  0  0  0
    4.4206  -11.9663   15.7486 H   0  0  0  0  0  0  0  0  0  0  0  0
    4.0694  -12.4866   18.5488 H   0  0  0  0  0  0  0  0  0  0  0  0
    2.4079   -9.7818   18.7958 H   0  0  0  0  0  0  0  0  0  0  0  0
    1.8179   -9.7988   17.5180 H   0  0  0  0  0  0  0  0  0  0  0  0
    3.5085   -9.6591   17.5543 H   0  0  0  0  0  0  0  0  0  0  0  0
    4.6462  -14.6950   18.1330 H   0  0  0  0  0  0  0  0  0  0  0  0
    3.4444  -16.1856   18.7025 H   0  0  0  0  0  0  0  0  0  0  0  0
   -0.6099  -16.6261   20.0871 H   0  0  0  0  0  0  0  0  0  0  0  0
    0.4997  -17.8777   19.1251 H   0  0  0  0  0  0  0  0  0  0  0  0
   -0.7142  -19.3661   19.9625 H   0  0  0  0  0  0  0  0  0  0  0  0
   -0.9954  -18.5847   21.6247 H   0  0  0  0  0  0  0  0  0  0  0  0
   -2.3490  -21.0200   20.7022 H   0  0  0  0  0  0  0  0  0  0  0  0
   -1.8969  -26.2267   24.0921 H   0  0  0  0  0  0  0  0  0  0  0  0
   -3.1915  -26.2275   26.3995 H   0  0  0  0  0  0  0  0  0  0  0  0
   -5.0381  -25.2999   27.8662 H   0  0  0  0  0  0  0  0  0  0  0  0
   -7.2751  -23.7492   27.4080 H   0  0  0  0  0  0  0  0  0  0  0  0
   -5.4455  -23.3224   22.4050 H   0  0  0  0  0  0  0  0  0  0  0  0
  1  2  1  0
  2  3  1  0
  2  4  1  0
  4  5  2  0
  5  6  1  0
  6  7  2  0
  7  8  1  0
  8  9  1  0
  9 10  1  0
 10 11  1  0
 11 12  1  0
 12 13  2  0
 12 14  1  0
 14 15  1  0
 15 16  2  0
 16 17  1  0
 17 18  1  0
 18 19  2  0
 19 20  1  0
 20 21  2  0
 21 22  1  0
  8  4  1  0
 22 14  2  0
 21 17  1  0
  1 23  1  0
  1 24  1  0
  1 25  1  0
  2 26  1  0
  3 27  1  0
  3 28  1  0
  3 29  1  0
  6 30  1  0
  7 31  1  0
  9 32  1  0
  9 33  1  0
 10 34  1  0
 10 35  1  0
 11 36  1  0
 15 37  1  0
 16 38  1  0
 18 39  1  0
 19 40  1  0
 22 41  1  0
M  END
>  <Energy>  (996) 
2144.8726435756207

>  <compound_id>  (996) 
36289

>  <target_id>  (996) 
1

>  <reference_id>  (996) 
45

>  <inspiration_ids>  (996) 
[63, 45]

>  <energy_score>  (996) 
2081.842977660748

>  <distance_score>  (996) 
10.91070714910654

>  <path>  (996) 
/opt/xchem-fragalysis-2/maxwin/BulkDock/SCRATCH/511017/C36289-P45/C36289-P45.minimised.mol

>  <scratch_subdir>  (996) 
/opt/xchem-fragalysis-2/maxwin/BulkDock/SCRATCH/511017/C36289-P45

>  <fragmenstein_runtime>  (996) 
19.314111709594727

>  <fragmenstein_outcome>  (996) 
too moved

>  <fragmenstein_mode>  (996) 
expansion

>  <fragmenstein_error>  (996) 


$$$$
C87581-P106
     RDKit          3D

 43 45  0  0  0  0  0  0  0  0999 V2000
    0.4250  -22.0417   23.3588 C   0  0  0  0  0  0  0  0  0  0  0  0
    0.9245  -20.6656   22.9284 C   0  0  0  0  0  0  0  0  0  0  0  0
    2.2943  -20.6596   22.4511 O   0  0  0  0  0  0  0  0  0  0  0  0
    3.2347  -20.2391   23.3423 C   0  0  0  0  0  0  0  0  0  0  0  0
    3.0500  -20.1541   24.5525 O   0  0  0  0  0  0  0  0  0  0  0  0
    4.5553  -19.8129   22.6904 C   0  0  0  0  0  0  0  0  0  0  0  0
    5.2693  -20.9279   21.9679 C   0  0  0  0  0  0  0  0  0  0  0  0
    6.6762  -20.4509   21.5425 C   0  0  0  0  0  0  0  0  0  0  0  0
    6.8507  -18.9164   21.4122 C   0  0  0  0  0  0  0  0  0  0  0  0
    5.6315  -18.2489   20.7900 C   0  0  0  0  0  0  0  0  0  0  0  0
    5.6864  -16.6602   20.4282 C   0  0  0  0  0  0  0  0  0  0  0  0
    4.7002  -16.0476   20.7360 O   0  0  0  0  0  0  0  0  0  0  0  0
    6.9008  -16.2242   19.7248 N   0  0  0  0  0  0  0  0  0  0  0  0
    7.3064  -14.9476   19.2879 C   0  0  0  0  0  0  0  0  0  0  0  0
    6.4393  -13.6913   19.3962 C   0  0  0  0  0  0  0  0  0  0  0  0
    6.7328  -12.4717   19.0290 N   0  0  0  0  0  0  0  0  0  0  0  0
    7.9408  -12.2877   18.4289 C   0  0  0  0  0  0  0  0  0  0  0  0
    8.4482  -11.2024   17.8765 N   0  0  0  0  0  0  0  0  0  0  0  0
    9.6525  -11.5813   17.3417 C   0  0  0  0  0  0  0  0  0  0  0  0
    9.9242  -12.8966   17.6312 C   0  0  0  0  0  0  0  0  0  0  0  0
    8.8132  -13.3625   18.2916 N   0  0  0  0  0  0  0  0  0  0  0  0
    8.5036  -14.6611   18.7293 C   0  0  0  0  0  0  0  0  0  0  0  0
    4.4235  -18.5892   21.7637 C   0  0  0  0  0  0  0  0  0  0  0  0
   -0.6228  -21.9974   23.6678 H   0  0  0  0  0  0  0  0  0  0  0  0
    1.0268  -22.4222   24.1901 H   0  0  0  0  0  0  0  0  0  0  0  0
    0.5264  -22.7567   22.5363 H   0  0  0  0  0  0  0  0  0  0  0  0
    0.7916  -19.9523   23.7487 H   0  0  0  0  0  0  0  0  0  0  0  0
    0.3090  -20.3109   22.0949 H   0  0  0  0  0  0  0  0  0  0  0  0
    5.1910  -19.5146   23.5382 H   0  0  0  0  0  0  0  0  0  0  0  0
    4.7019  -21.2226   21.0759 H   0  0  0  0  0  0  0  0  0  0  0  0
    5.3517  -21.8257   22.5912 H   0  0  0  0  0  0  0  0  0  0  0  0
    6.9289  -20.9277   20.5874 H   0  0  0  0  0  0  0  0  0  0  0  0
    7.4136  -20.8153   22.2684 H   0  0  0  0  0  0  0  0  0  0  0  0
    7.0496  -18.4781   22.3988 H   0  0  0  0  0  0  0  0  0  0  0  0
    7.7508  -18.7254   20.8186 H   0  0  0  0  0  0  0  0  0  0  0  0
    5.4266  -18.7372   19.8267 H   0  0  0  0  0  0  0  0  0  0  0  0
    7.5654  -16.9868   19.7082 H   0  0  0  0  0  0  0  0  0  0  0  0
    5.4474  -13.8519   19.8490 H   0  0  0  0  0  0  0  0  0  0  0  0
   10.2651  -10.8927   16.7742 H   0  0  0  0  0  0  0  0  0  0  0  0
   10.7613  -13.5332   17.3872 H   0  0  0  0  0  0  0  0  0  0  0  0
    9.2647  -15.4111   18.5597 H   0  0  0  0  0  0  0  0  0  0  0  0
    3.5317  -18.7093   21.1403 H   0  0  0  0  0  0  0  0  0  0  0  0
    4.3046  -17.7408   22.4426 H   0  0  0  0  0  0  0  0  0  0  0  0
  1  2  1  0
  2  3  1  0
  3  4  1  0
  4  5  2  0
  4  6  1  0
  6  7  1  0
  7  8  1  0
  8  9  1  0
  9 10  1  0
 10 11  1  0
 11 12  2  0
 11 13  1  0
 13 14  1  0
 14 15  1  0
 15 16  2  0
 16 17  1  0
 17 18  2  0
 18 19  1  0
 19 20  2  0
 20 21  1  0
 21 22  1  0
 10 23  1  0
 23  6  1  0
 22 14  2  0
 21 17  1  0
  1 24  1  0
  1 25  1  0
  1 26  1  0
  2 27  1  0
  2 28  1  0
  6 29  1  0
  7 30  1  0
  7 31  1  0
  8 32  1  0
  8 33  1  0
  9 34  1  0
  9 35  1  0
 10 36  1  0
 13 37  1  0
 15 38  1  0
 19 39  1  0
 20 40  1  0
 22 41  1  0
 23 42  1  0
 23 43  1  0
M  END
>  <Energy>  (997) 
46.118434878936903

>  <compound_id>  (997) 
87581

>  <target_id>  (997) 
1

>  <reference_id>  (997) 
106

>  <inspiration_ids>  (997) 
[106, 123]

>  <energy_score>  (997) 
-37.703582810993794

>  <distance_score>  (997) 
16.26622364329752

>  <path>  (997) 
/opt/xchem-fragalysis-2/maxwin/BulkDock/SCRATCH/511017/C87581-P106/C87581-P106.minimised.mol

>  <scratch_subdir>  (997) 
/opt/xchem-fragalysis-2/maxwin/BulkDock/SCRATCH/511017/C87581-P106

>  <fragmenstein_runtime>  (997) 
23.875288486480713

>  <fragmenstein_outcome>  (997) 
too moved

>  <fragmenstein_mode>  (997) 
expansion

>  <fragmenstein_error>  (997) 


$$$$
C87581-P123
     RDKit          3D

 43 45  0  0  0  0  0  0  0  0999 V2000
   -2.0123  -20.7319   21.8372 C   0  0  0  0  0  0  0  0  0  0  0  0
   -0.5616  -20.4703   21.4103 C   0  0  0  0  0  0  0  0  0  0  0  0
   -0.5395  -19.5196   20.3290 O   0  0  0  0  0  0  0  0  0  0  0  0
    0.6844  -19.0643   19.9161 C   0  0  0  0  0  0  0  0  0  0  0  0
    1.7604  -19.4390   20.3679 O   0  0  0  0  0  0  0  0  0  0  0  0
    0.5515  -18.0997   18.7330 C   0  0  0  0  0  0  0  0  0  0  0  0
   -0.8355  -17.4420   18.6802 C   0  0  0  0  0  0  0  0  0  0  0  0
   -0.9388  -16.4425   17.5274 C   0  0  0  0  0  0  0  0  0  0  0  0
    0.2489  -16.5150   16.5698 C   0  0  0  0  0  0  0  0  0  0  0  0
    1.6302  -16.2241   17.2475 C   0  0  0  0  0  0  0  0  0  0  0  0
    1.9326  -14.6279   17.1548 C   0  0  0  0  0  0  0  0  0  0  0  0
    0.9848  -13.9393   16.8816 O   0  0  0  0  0  0  0  0  0  0  0  0
    3.3412  -14.2746   17.3569 N   0  0  0  0  0  0  0  0  0  0  0  0
    4.0130  -13.0533   17.2025 C   0  0  0  0  0  0  0  0  0  0  0  0
    5.4489  -12.8311   17.6626 C   0  0  0  0  0  0  0  0  0  0  0  0
    6.1316  -11.7176   17.6754 N   0  0  0  0  0  0  0  0  0  0  0  0
    5.4812  -10.6088   17.2175 C   0  0  0  0  0  0  0  0  0  0  0  0
    5.8452   -9.3405   17.2531 N   0  0  0  0  0  0  0  0  0  0  0  0
    4.8509   -8.6358   16.6248 C   0  0  0  0  0  0  0  0  0  0  0  0
    3.8364   -9.4752   16.2416 C   0  0  0  0  0  0  0  0  0  0  0  0
    4.2067  -10.7248   16.6770 N   0  0  0  0  0  0  0  0  0  0  0  0
    3.4873  -11.9226   16.6876 C   0  0  0  0  0  0  0  0  0  0  0  0
    1.6654  -17.0087   18.6135 C   0  0  0  0  0  0  0  0  0  0  0  0
   -2.5935  -21.1149   20.9924 H   0  0  0  0  0  0  0  0  0  0  0  0
   -2.0507  -21.4551   22.6562 H   0  0  0  0  0  0  0  0  0  0  0  0
   -2.4879  -19.7998   22.1582 H   0  0  0  0  0  0  0  0  0  0  0  0
    0.0074  -20.0856   22.2619 H   0  0  0  0  0  0  0  0  0  0  0  0
   -0.1071  -21.4052   21.0652 H   0  0  0  0  0  0  0  0  0  0  0  0
    0.6486  -18.7690   17.8660 H   0  0  0  0  0  0  0  0  0  0  0  0
   -1.0611  -16.9368   19.6264 H   0  0  0  0  0  0  0  0  0  0  0  0
   -1.6106  -18.2073   18.5475 H   0  0  0  0  0  0  0  0  0  0  0  0
   -1.0335  -15.4283   17.9264 H   0  0  0  0  0  0  0  0  0  0  0  0
   -1.8649  -16.6301   16.9707 H   0  0  0  0  0  0  0  0  0  0  0  0
    0.0781  -15.8292   15.7311 H   0  0  0  0  0  0  0  0  0  0  0  0
    0.2801  -17.5107   16.1076 H   0  0  0  0  0  0  0  0  0  0  0  0
    2.3910  -16.6735   16.5927 H   0  0  0  0  0  0  0  0  0  0  0  0
    3.8498  -15.0988   17.6579 H   0  0  0  0  0  0  0  0  0  0  0  0
    5.9492  -13.7400   18.0377 H   0  0  0  0  0  0  0  0  0  0  0  0
    4.9121   -7.5636   16.4931 H   0  0  0  0  0  0  0  0  0  0  0  0
    2.8895   -9.2983   15.7528 H   0  0  0  0  0  0  0  0  0  0  0  0
    2.4721  -11.8716   16.3115 H   0  0  0  0  0  0  0  0  0  0  0  0
    1.6137  -16.3285   19.4595 H   0  0  0  0  0  0  0  0  0  0  0  0
    2.6484  -17.4897   18.6981 H   0  0  0  0  0  0  0  0  0  0  0  0
  1  2  1  0
  2  3  1  0
  3  4  1  0
  4  5  2  0
  4  6  1  0
  6  7  1  0
  7  8  1  0
  8  9  1  0
  9 10  1  0
 10 11  1  0
 11 12  2  0
 11 13  1  0
 13 14  1  0
 14 15  1  0
 15 16  2  0
 16 17  1  0
 17 18  2  0
 18 19  1  0
 19 20  2  0
 20 21  1  0
 21 22  1  0
 10 23  1  0
 23  6  1  0
 22 14  2  0
 21 17  1  0
  1 24  1  0
  1 25  1  0
  1 26  1  0
  2 27  1  0
  2 28  1  0
  6 29  1  0
  7 30  1  0
  7 31  1  0
  8 32  1  0
  8 33  1  0
  9 34  1  0
  9 35  1  0
 10 36  1  0
 13 37  1  0
 15 38  1  0
 19 39  1  0
 20 40  1  0
 22 41  1  0
 23 42  1  0
 23 43  1  0
M  END
>  <Energy>  (998) 
44.622170971648515

>  <compound_id>  (998) 
87581

>  <target_id>  (998) 
1

>  <reference_id>  (998) 
123

>  <inspiration_ids>  (998) 
[106, 123]

>  <energy_score>  (998) 
-39.19984671828411

>  <distance_score>  (998) 
16.127431546726143

>  <path>  (998) 
/opt/xchem-fragalysis-2/maxwin/BulkDock/SCRATCH/511017/C87581-P123/C87581-P123.minimised.mol

>  <scratch_subdir>  (998) 
/opt/xchem-fragalysis-2/maxwin/BulkDock/SCRATCH/511017/C87581-P123

>  <fragmenstein_runtime>  (998) 
29.149152994155884

>  <fragmenstein_outcome>  (998) 
too moved

>  <fragmenstein_mode>  (998) 
expansion

>  <fragmenstein_error>  (998) 


$$$$
C87583-P106
     RDKit          3D

 42 44  0  0  0  0  0  0  0  0999 V2000
    2.7855  -10.5090   29.7761 C   0  0  0  0  0  0  0  0  0  0  0  0
    4.1811   -9.9060   29.5673 C   0  0  0  0  0  0  0  0  0  0  0  0
    5.0872  -10.8652   28.9706 O   0  0  0  0  0  0  0  0  0  0  0  0
    6.0002  -10.4135   28.0554 C   0  0  0  0  0  0  0  0  0  0  0  0
    5.9060   -9.3116   27.5181 O   0  0  0  0  0  0  0  0  0  0  0  0
    7.1409  -11.4048   27.7452 C   0  0  0  0  0  0  0  0  0  0  0  0
    8.3281  -10.7554   26.8121 C   0  0  0  0  0  0  0  0  0  0  0  0
    9.4110  -11.2681   26.9335 O   0  0  0  0  0  0  0  0  0  0  0  0
    7.8655   -9.7030   25.8929 N   0  0  0  0  0  0  0  0  0  0  0  0
    8.5603   -8.9311   24.9623 C   0  0  0  0  0  0  0  0  0  0  0  0
   10.0240   -9.1107   24.6095 C   0  0  0  0  0  0  0  0  0  0  0  0
   10.7192   -8.4447   23.7273 N   0  0  0  0  0  0  0  0  0  0  0  0
   10.0659   -7.4657   23.0405 C   0  0  0  0  0  0  0  0  0  0  0  0
   10.5127   -6.6589   22.0991 N   0  0  0  0  0  0  0  0  0  0  0  0
    9.4651   -5.8459   21.7655 C   0  0  0  0  0  0  0  0  0  0  0  0
    8.3409   -6.1778   22.4822 C   0  0  0  0  0  0  0  0  0  0  0  0
    8.7262   -7.2098   23.3045 N   0  0  0  0  0  0  0  0  0  0  0  0
    7.9914   -7.9336   24.2505 C   0  0  0  0  0  0  0  0  0  0  0  0
    7.7174  -11.9009   29.1195 C   0  0  0  0  0  0  0  0  0  0  0  0
    7.8893  -13.4222   29.2058 C   0  0  0  0  0  0  0  0  0  0  0  0
    6.5808  -14.1670   28.9110 C   0  0  0  0  0  0  0  0  0  0  0  0
    5.8318  -13.5775   27.8011 N   0  0  0  0  0  0  0  0  0  0  0  0
    6.6337  -12.6675   26.9818 C   0  0  0  0  0  0  0  0  0  0  0  0
    2.1466   -9.7951   30.3050 H   0  0  0  0  0  0  0  0  0  0  0  0
    2.3113  -10.7383   28.8248 H   0  0  0  0  0  0  0  0  0  0  0  0
    2.8697  -11.4049   30.3829 H   0  0  0  0  0  0  0  0  0  0  0  0
    4.1025   -8.9882   28.9782 H   0  0  0  0  0  0  0  0  0  0  0  0
    4.6015   -9.6399   30.5430 H   0  0  0  0  0  0  0  0  0  0  0  0
    6.9063   -9.4547   26.1266 H   0  0  0  0  0  0  0  0  0  0  0  0
   10.5460   -9.9038   25.1687 H   0  0  0  0  0  0  0  0  0  0  0  0
    9.5814   -5.0651   21.0305 H   0  0  0  0  0  0  0  0  0  0  0  0
    7.3390   -5.7752   22.4908 H   0  0  0  0  0  0  0  0  0  0  0  0
    6.9529   -7.6510   24.3621 H   0  0  0  0  0  0  0  0  0  0  0  0
    7.0919  -11.5884   29.9641 H   0  0  0  0  0  0  0  0  0  0  0  0
    8.6899  -11.4301   29.3098 H   0  0  0  0  0  0  0  0  0  0  0  0
    8.2477  -13.6966   30.2049 H   0  0  0  0  0  0  0  0  0  0  0  0
    8.6677  -13.7405   28.5008 H   0  0  0  0  0  0  0  0  0  0  0  0
    5.9653  -14.1490   29.8123 H   0  0  0  0  0  0  0  0  0  0  0  0
    6.8092  -15.2166   28.6940 H   0  0  0  0  0  0  0  0  0  0  0  0
    5.4142  -14.3214   27.2399 H   0  0  0  0  0  0  0  0  0  0  0  0
    6.0872  -12.3556   26.0948 H   0  0  0  0  0  0  0  0  0  0  0  0
    7.4839  -13.2262   26.5650 H   0  0  0  0  0  0  0  0  0  0  0  0
  1  2  1  0
  2  3  1  0
  3  4  1  0
  4  5  2  0
  4  6  1  0
  6  7  1  0
  7  8  2  0
  7  9  1  0
  9 10  1  0
 10 11  1  0
 11 12  2  0
 12 13  1  0
 13 14  2  0
 14 15  1  0
 15 16  2  0
 16 17  1  0
 17 18  1  0
  6 19  1  0
 19 20  1  0
 20 21  1  0
 21 22  1  0
 22 23  1  0
 23  6  1  0
 18 10  2  0
 17 13  1  0
  1 24  1  0
  1 25  1  0
  1 26  1  0
  2 27  1  0
  2 28  1  0
  9 29  1  0
 11 30  1  0
 15 31  1  0
 16 32  1  0
 18 33  1  0
 19 34  1  0
 19 35  1  0
 20 36  1  0
 20 37  1  0
 21 38  1  0
 21 39  1  0
 22 40  1  0
 23 41  1  0
 23 42  1  0
M  END
>  <Energy>  (999) 
38.016476790860381

>  <compound_id>  (999) 
87583

>  <target_id>  (999) 
1

>  <reference_id>  (999) 
106

>  <inspiration_ids>  (999) 
[106, 123]

>  <energy_score>  (999) 
-49.99255710888673

>  <distance_score>  (999) 
17.23391700006935

>  <path>  (999) 
/opt/xchem-fragalysis-2/maxwin/BulkDock/SCRATCH/511017/C87583-P106/C87583-P106.minimised.mol

>  <scratch_subdir>  (999) 
/opt/xchem-fragalysis-2/maxwin/BulkDock/SCRATCH/511017/C87583-P106

>  <fragmenstein_runtime>  (999) 
28.71230912208557

>  <fragmenstein_outcome>  (999) 
too moved

>  <fragmenstein_mode>  (999) 
expansion

>  <fragmenstein_error>  (999) 


$$$$
C87583-P123
     RDKit          3D

 42 44  0  0  0  0  0  0  0  0999 V2000
   -3.5046  -14.8187   18.6499 C   0  0  0  0  0  0  0  0  0  0  0  0
   -2.7293  -13.8415   17.7496 C   0  0  0  0  0  0  0  0  0  0  0  0
   -2.6753  -12.5338   18.3617 O   0  0  0  0  0  0  0  0  0  0  0  0
   -1.7455  -11.6356   17.9089 C   0  0  0  0  0  0  0  0  0  0  0  0
   -0.7708  -11.9558   17.2387 O   0  0  0  0  0  0  0  0  0  0  0  0
   -2.0514  -10.1861   18.3400 C   0  0  0  0  0  0  0  0  0  0  0  0
   -1.0371   -9.1735   17.5696 C   0  0  0  0  0  0  0  0  0  0  0  0
   -1.4294   -8.6504   16.5602 O   0  0  0  0  0  0  0  0  0  0  0  0
    0.2638   -9.0816   18.2526 N   0  0  0  0  0  0  0  0  0  0  0  0
    1.3764   -8.3027   17.9864 C   0  0  0  0  0  0  0  0  0  0  0  0
    1.5964   -7.4027   16.7875 C   0  0  0  0  0  0  0  0  0  0  0  0
    2.6724   -6.7143   16.5007 N   0  0  0  0  0  0  0  0  0  0  0  0
    3.7124   -6.8172   17.3803 C   0  0  0  0  0  0  0  0  0  0  0  0
    4.9207   -6.2911   17.3354 N   0  0  0  0  0  0  0  0  0  0  0  0
    5.5305   -6.6553   18.5026 C   0  0  0  0  0  0  0  0  0  0  0  0
    4.7313   -7.4701   19.2537 C   0  0  0  0  0  0  0  0  0  0  0  0
    3.5743   -7.5780   18.5329 N   0  0  0  0  0  0  0  0  0  0  0  0
    2.4308   -8.3008   18.8227 C   0  0  0  0  0  0  0  0  0  0  0  0
   -1.9594   -9.9517   19.8585 C   0  0  0  0  0  0  0  0  0  0  0  0
   -3.1477  -10.4500   20.6400 C   0  0  0  0  0  0  0  0  0  0  0  0
   -4.5201  -10.1187   20.0926 C   0  0  0  0  0  0  0  0  0  0  0  0
   -4.6021  -10.5359   18.7013 N   0  0  0  0  0  0  0  0  0  0  0  0
   -3.5294   -9.9036   17.8975 C   0  0  0  0  0  0  0  0  0  0  0  0
   -3.6618  -15.7709   18.1357 H   0  0  0  0  0  0  0  0  0  0  0  0
   -4.4726  -14.3957   18.9333 H   0  0  0  0  0  0  0  0  0  0  0  0
   -2.9331  -15.0079   19.5611 H   0  0  0  0  0  0  0  0  0  0  0  0
   -1.7248  -14.2312   17.5566 H   0  0  0  0  0  0  0  0  0  0  0  0
   -3.2555  -13.7370   16.7949 H   0  0  0  0  0  0  0  0  0  0  0  0
    0.2733   -9.7214   19.0345 H   0  0  0  0  0  0  0  0  0  0  0  0
    0.7463   -7.3401   16.0885 H   0  0  0  0  0  0  0  0  0  0  0  0
    6.5104   -6.3091   18.7619 H   0  0  0  0  0  0  0  0  0  0  0  0
    4.8661   -7.9542   20.2098 H   0  0  0  0  0  0  0  0  0  0  0  0
    2.4461   -8.8633   19.7462 H   0  0  0  0  0  0  0  0  0  0  0  0
   -1.8561   -8.8752   20.0504 H   0  0  0  0  0  0  0  0  0  0  0  0
   -1.0670  -10.4293   20.2771 H   0  0  0  0  0  0  0  0  0  0  0  0
   -3.0810  -10.0463   21.6514 H   0  0  0  0  0  0  0  0  0  0  0  0
   -3.0325  -11.5313   20.6623 H   0  0  0  0  0  0  0  0  0  0  0  0
   -4.7088   -9.0415   20.1746 H   0  0  0  0  0  0  0  0  0  0  0  0
   -5.3027  -10.6246   20.6646 H   0  0  0  0  0  0  0  0  0  0  0  0
   -5.5086  -10.2628   18.3207 H   0  0  0  0  0  0  0  0  0  0  0  0
   -3.7036   -8.8189   17.8884 H   0  0  0  0  0  0  0  0  0  0  0  0
   -3.6635  -10.2347   16.8594 H   0  0  0  0  0  0  0  0  0  0  0  0
  1  2  1  0
  2  3  1  0
  3  4  1  0
  4  5  2  0
  4  6  1  0
  6  7  1  0
  7  8  2  0
  7  9  1  0
  9 10  1  0
 10 11  1  0
 11 12  2  0
 12 13  1  0
 13 14  2  0
 14 15  1  0
 15 16  2  0
 16 17  1  0
 17 18  1  0
  6 19  1  0
 19 20  1  0
 20 21  1  0
 21 22  1  0
 22 23  1  0
 23  6  1  0
 18 10  2  0
 17 13  1  0
  1 24  1  0
  1 25  1  0
  1 26  1  0
  2 27  1  0
  2 28  1  0
  9 29  1  0
 11 30  1  0
 15 31  1  0
 16 32  1  0
 18 33  1  0
 19 34  1  0
 19 35  1  0
 20 36  1  0
 20 37  1  0
 21 38  1  0
 21 39  1  0
 22 40  1  0
 23 41  1  0
 23 42  1  0
M  END
>  <Energy>  (1000) 
36.081092868412583

>  <compound_id>  (1000) 
87583

>  <target_id>  (1000) 
1

>  <reference_id>  (1000) 
123

>  <inspiration_ids>  (1000) 
[106, 123]

>  <energy_score>  (1000) 
-51.927941031335365

>  <distance_score>  (1000) 
16.5997359782647

>  <path>  (1000) 
/opt/xchem-fragalysis-2/maxwin/BulkDock/SCRATCH/511017/C87583-P123/C87583-P123.minimised.mol

>  <scratch_subdir>  (1000) 
/opt/xchem-fragalysis-2/maxwin/BulkDock/SCRATCH/511017/C87583-P123

>  <fragmenstein_runtime>  (1000) 
33.13842177391052

>  <fragmenstein_outcome>  (1000) 
too moved

>  <fragmenstein_mode>  (1000) 
expansion

>  <fragmenstein_error>  (1000) 


$$$$
C87584-P106
     RDKit          3D

 37 39  0  0  0  0  0  0  0  0999 V2000
   -3.2244  -12.7985   18.6689 C   0  0  0  0  0  0  0  0  0  0  0  0
   -2.2108  -11.7950   18.0746 C   0  0  0  0  0  0  0  0  0  0  0  0
   -1.8033  -10.8869   19.1156 O   0  0  0  0  0  0  0  0  0  0  0  0
   -0.9267   -9.8566   18.8500 C   0  0  0  0  0  0  0  0  0  0  0  0
   -0.2700   -9.7972   17.8141 O   0  0  0  0  0  0  0  0  0  0  0  0
   -0.9406   -8.8091   20.0391 C   0  0  0  0  0  0  0  0  0  0  0  0
    0.2631   -7.6884   20.0059 C   0  0  0  0  0  0  0  0  0  0  0  0
    0.0199   -6.7003   20.6615 O   0  0  0  0  0  0  0  0  0  0  0  0
    1.4759   -8.0759   19.2838 N   0  0  0  0  0  0  0  0  0  0  0  0
    2.7232   -7.4759   19.2147 C   0  0  0  0  0  0  0  0  0  0  0  0
    3.7902   -7.9157   18.2321 C   0  0  0  0  0  0  0  0  0  0  0  0
    5.0333   -7.5202   18.1671 N   0  0  0  0  0  0  0  0  0  0  0  0
    5.4299   -6.6477   19.1387 C   0  0  0  0  0  0  0  0  0  0  0  0
    6.6451   -6.2366   19.4520 N   0  0  0  0  0  0  0  0  0  0  0  0
    6.5025   -5.4654   20.5755 C   0  0  0  0  0  0  0  0  0  0  0  0
    5.1803   -5.3221   20.9081 C   0  0  0  0  0  0  0  0  0  0  0  0
    4.5000   -6.1261   20.0319 N   0  0  0  0  0  0  0  0  0  0  0  0
    3.1635   -6.5130   20.0460 C   0  0  0  0  0  0  0  0  0  0  0  0
   -2.4103   -8.2405   20.3059 C   0  0  0  0  0  0  0  0  0  0  0  0
   -2.6243   -9.3159   21.3761 C   0  0  0  0  0  0  0  0  0  0  0  0
   -1.0945   -9.4288   21.4768 C   0  0  0  0  0  0  0  0  0  0  0  0
   -3.5619  -13.5009   17.9024 H   0  0  0  0  0  0  0  0  0  0  0  0
   -4.0902  -12.2633   19.0720 H   0  0  0  0  0  0  0  0  0  0  0  0
   -2.7790  -13.3561   19.4938 H   0  0  0  0  0  0  0  0  0  0  0  0
   -1.3356  -12.3192   17.6796 H   0  0  0  0  0  0  0  0  0  0  0  0
   -2.6853  -11.2226   17.2708 H   0  0  0  0  0  0  0  0  0  0  0  0
    1.2962   -8.9375   18.7712 H   0  0  0  0  0  0  0  0  0  0  0  0
    3.4448   -8.6479   17.4821 H   0  0  0  0  0  0  0  0  0  0  0  0
    7.3592   -5.0321   21.0753 H   0  0  0  0  0  0  0  0  0  0  0  0
    4.6840   -4.7888   21.7053 H   0  0  0  0  0  0  0  0  0  0  0  0
    2.5446   -6.0872   20.8266 H   0  0  0  0  0  0  0  0  0  0  0  0
   -2.4423   -7.2191   20.7021 H   0  0  0  0  0  0  0  0  0  0  0  0
   -3.1003   -8.2929   19.4577 H   0  0  0  0  0  0  0  0  0  0  0  0
   -3.1360  -10.2088   21.0097 H   0  0  0  0  0  0  0  0  0  0  0  0
   -3.1326   -8.9698   22.2736 H   0  0  0  0  0  0  0  0  0  0  0  0
   -0.6601   -8.7906   22.2524 H   0  0  0  0  0  0  0  0  0  0  0  0
   -0.6792  -10.4248   21.5722 H   0  0  0  0  0  0  0  0  0  0  0  0
  1  2  1  0
  2  3  1  0
  3  4  1  0
  4  5  2  0
  4  6  1  0
  6  7  1  0
  7  8  2  0
  7  9  1  0
  9 10  1  0
 10 11  1  0
 11 12  2  0
 12 13  1  0
 13 14  2  0
 14 15  1  0
 15 16  2  0
 16 17  1  0
 17 18  1  0
  6 19  1  0
 19 20  1  0
 20 21  1  0
 21  6  1  0
 18 10  2  0
 17 13  1  0
  1 22  1  0
  1 23  1  0
  1 24  1  0
  2 25  1  0
  2 26  1  0
  9 27  1  0
 11 28  1  0
 15 29  1  0
 16 30  1  0
 18 31  1  0
 19 32  1  0
 19 33  1  0
 20 34  1  0
 20 35  1  0
 21 36  1  0
 21 37  1  0
M  END
>  <Energy>  (1001) 
28.160713228049371

>  <compound_id>  (1001) 
87584

>  <target_id>  (1001) 
1

>  <reference_id>  (1001) 
106

>  <inspiration_ids>  (1001) 
[106, 123]

>  <energy_score>  (1001) 
-54.12234612279167

>  <distance_score>  (1001) 
16.726314241994572

>  <path>  (1001) 
/opt/xchem-fragalysis-2/maxwin/BulkDock/SCRATCH/511017/C87584-P106/C87584-P106.minimised.mol

>  <scratch_subdir>  (1001) 
/opt/xchem-fragalysis-2/maxwin/BulkDock/SCRATCH/511017/C87584-P106

>  <fragmenstein_runtime>  (1001) 
25.2072012424469

>  <fragmenstein_outcome>  (1001) 
too moved

>  <fragmenstein_mode>  (1001) 
expansion

>  <fragmenstein_error>  (1001) 


$$$$
C87584-P123
     RDKit          3D

 37 39  0  0  0  0  0  0  0  0999 V2000
   -8.9964  -14.3075   27.2187 C   0  0  0  0  0  0  0  0  0  0  0  0
   -8.4285  -12.8980   27.0006 C   0  0  0  0  0  0  0  0  0  0  0  0
   -7.3537  -12.9620   26.0436 O   0  0  0  0  0  0  0  0  0  0  0  0
   -7.0467  -11.8103   25.3518 C   0  0  0  0  0  0  0  0  0  0  0  0
   -7.5320  -10.7299   25.6716 O   0  0  0  0  0  0  0  0  0  0  0  0
   -6.0432  -12.1535   23.9905 C   0  0  0  0  0  0  0  0  0  0  0  0
   -4.0923  -11.4209   24.1135 C   0  0  0  0  0  0  0  0  0  0  0  0
   -3.3276  -11.9954   24.9319 O   0  0  0  0  0  0  0  0  0  0  0  0
   -3.6790  -10.0762   22.8822 N   0  0  0  0  0  0  0  0  0  0  0  0
   -2.2369   -9.3815   22.4619 C   0  0  0  0  0  0  0  0  0  0  0  0
   -1.4857   -8.0273   22.8532 C   0  0  0  0  0  0  0  0  0  0  0  0
   -0.5531   -7.3267   22.2534 N   0  0  0  0  0  0  0  0  0  0  0  0
   -0.1200   -7.7898   21.0640 C   0  0  0  0  0  0  0  0  0  0  0  0
    0.8043   -7.3004   20.2558 N   0  0  0  0  0  0  0  0  0  0  0  0
    0.8304   -8.1428   19.1809 C   0  0  0  0  0  0  0  0  0  0  0  0
   -0.1274   -9.1243   19.3119 C   0  0  0  0  0  0  0  0  0  0  0  0
   -0.7130   -8.9290   20.5459 N   0  0  0  0  0  0  0  0  0  0  0  0
   -1.7635   -9.6393   21.1955 C   0  0  0  0  0  0  0  0  0  0  0  0
   -6.9072  -11.7232   22.5672 C   0  0  0  0  0  0  0  0  0  0  0  0
   -7.7487  -12.9788   22.6917 C   0  0  0  0  0  0  0  0  0  0  0  0
   -6.6164  -13.6513   23.4422 C   0  0  0  0  0  0  0  0  0  0  0  0
   -8.2802  -14.9277   27.7632 H   0  0  0  0  0  0  0  0  0  0  0  0
   -9.2056  -14.7963   26.2622 H   0  0  0  0  0  0  0  0  0  0  0  0
   -9.9161  -14.2604   27.8091 H   0  0  0  0  0  0  0  0  0  0  0  0
   -9.2283  -12.2496   26.6261 H   0  0  0  0  0  0  0  0  0  0  0  0
   -8.0407  -12.4955   27.9416 H   0  0  0  0  0  0  0  0  0  0  0  0
   -4.4861   -9.8763   22.3079 H   0  0  0  0  0  0  0  0  0  0  0  0
   -1.5953   -7.6642   23.8709 H   0  0  0  0  0  0  0  0  0  0  0  0
    1.5199   -7.9906   18.3616 H   0  0  0  0  0  0  0  0  0  0  0  0
   -0.4201   -9.9375   18.6668 H   0  0  0  0  0  0  0  0  0  0  0  0
   -2.1966  -10.4353   20.6019 H   0  0  0  0  0  0  0  0  0  0  0  0
   -7.5282  -10.8201   22.6111 H   0  0  0  0  0  0  0  0  0  0  0  0
   -6.3467  -11.6851   21.6276 H   0  0  0  0  0  0  0  0  0  0  0  0
   -8.0322  -13.4502   21.7465 H   0  0  0  0  0  0  0  0  0  0  0  0
   -8.6587  -12.8376   23.2866 H   0  0  0  0  0  0  0  0  0  0  0  0
   -7.1339  -14.3254   24.1409 H   0  0  0  0  0  0  0  0  0  0  0  0
   -6.0044  -14.3063   22.8486 H   0  0  0  0  0  0  0  0  0  0  0  0
  1  2  1  0
  2  3  1  0
  3  4  1  0
  4  5  2  0
  4  6  1  0
  6  7  1  0
  7  8  2  0
  7  9  1  0
  9 10  1  0
 10 11  1  0
 11 12  2  0
 12 13  1  0
 13 14  2  0
 14 15  1  0
 15 16  2  0
 16 17  1  0
 17 18  1  0
  6 19  1  0
 19 20  1  0
 20 21  1  0
 21  6  1  0
 18 10  2  0
 17 13  1  0
  1 22  1  0
  1 23  1  0
  1 24  1  0
  2 25  1  0
  2 26  1  0
  9 27  1  0
 11 28  1  0
 15 29  1  0
 16 30  1  0
 18 31  1  0
 19 32  1  0
 19 33  1  0
 20 34  1  0
 20 35  1  0
 21 36  1  0
 21 37  1  0
M  END
>  <Energy>  (1002) 
228.81449941478326

>  <compound_id>  (1002) 
87584

>  <target_id>  (1002) 
1

>  <reference_id>  (1002) 
123

>  <inspiration_ids>  (1002) 
[106, 123]

>  <energy_score>  (1002) 
146.53144006393893

>  <distance_score>  (1002) 
15.862647482517113

>  <path>  (1002) 
/opt/xchem-fragalysis-2/maxwin/BulkDock/SCRATCH/511017/C87584-P123/C87584-P123.minimised.mol

>  <scratch_subdir>  (1002) 
/opt/xchem-fragalysis-2/maxwin/BulkDock/SCRATCH/511017/C87584-P123

>  <fragmenstein_runtime>  (1002) 
21.816879510879517

>  <fragmenstein_outcome>  (1002) 
too moved

>  <fragmenstein_mode>  (1002) 
expansion

>  <fragmenstein_error>  (1002) 


$$$$
C87585-P106
     RDKit          3D

 37 39  0  0  0  0  0  0  0  0999 V2000
   -4.9880  -17.9452   25.6015 C   0  0  0  0  0  0  0  0  0  0  0  0
   -4.4291  -16.5382   25.7901 C   0  0  0  0  0  0  0  0  0  0  0  0
   -3.2813  -16.3481   24.9367 O   0  0  0  0  0  0  0  0  0  0  0  0
   -2.6896  -15.1245   25.0532 C   0  0  0  0  0  0  0  0  0  0  0  0
   -3.1491  -14.2610   25.7881 O   0  0  0  0  0  0  0  0  0  0  0  0
   -1.3251  -15.0096   24.0814 C   0  0  0  0  0  0  0  0  0  0  0  0
   -0.7499  -14.0055   24.6377 C   0  0  0  0  0  0  0  0  0  0  0  0
    1.1930  -13.7500   24.0335 C   0  0  0  0  0  0  0  0  0  0  0  0
    1.2941  -12.4439   23.4245 N   0  0  0  0  0  0  0  0  0  0  0  0
    2.4224  -11.9803   23.6428 C   0  0  0  0  0  0  0  0  0  0  0  0
    2.3868  -11.4191   24.5876 O   0  0  0  0  0  0  0  0  0  0  0  0
    3.8111  -11.9600   22.6065 N   0  0  0  0  0  0  0  0  0  0  0  0
    5.3630  -10.9815   22.7020 C   0  0  0  0  0  0  0  0  0  0  0  0
    6.3204  -10.9903   21.2678 C   0  0  0  0  0  0  0  0  0  0  0  0
    7.4937  -10.5244   20.9637 N   0  0  0  0  0  0  0  0  0  0  0  0
    8.2082  -10.1307   22.0316 C   0  0  0  0  0  0  0  0  0  0  0  0
    9.3430   -9.4639   22.0791 N   0  0  0  0  0  0  0  0  0  0  0  0
    9.7492   -9.5475   23.3794 C   0  0  0  0  0  0  0  0  0  0  0  0
    8.8471  -10.2622   24.1406 C   0  0  0  0  0  0  0  0  0  0  0  0
    7.7967  -10.5577   23.2997 N   0  0  0  0  0  0  0  0  0  0  0  0
    6.4717  -11.0671   23.6122 C   0  0  0  0  0  0  0  0  0  0  0  0
    0.3297  -14.1308   23.8544 C   0  0  0  0  0  0  0  0  0  0  0  0
   -4.2170  -18.6950   25.8055 H   0  0  0  0  0  0  0  0  0  0  0  0
   -5.3061  -18.0838   24.5636 H   0  0  0  0  0  0  0  0  0  0  0  0
   -5.8384  -18.1162   26.2662 H   0  0  0  0  0  0  0  0  0  0  0  0
   -5.2002  -15.8036   25.5313 H   0  0  0  0  0  0  0  0  0  0  0  0
   -4.1285  -16.4067   26.8357 H   0  0  0  0  0  0  0  0  0  0  0  0
   -1.1991  -13.4046   25.4191 H   0  0  0  0  0  0  0  0  0  0  0  0
    1.6120  -13.3628   25.1549 H   0  0  0  0  0  0  0  0  0  0  0  0
    2.0916  -14.4255   23.4068 H   0  0  0  0  0  0  0  0  0  0  0  0
    3.6657  -12.6296   21.8230 H   0  0  0  0  0  0  0  0  0  0  0  0
    5.9473  -11.6895   20.5119 H   0  0  0  0  0  0  0  0  0  0  0  0
   10.6806   -9.1013   23.7042 H   0  0  0  0  0  0  0  0  0  0  0  0
    8.8320  -10.5217   25.1883 H   0  0  0  0  0  0  0  0  0  0  0  0
    6.4305  -11.5124   24.5954 H   0  0  0  0  0  0  0  0  0  0  0  0
   -0.0276  -14.2754   22.6751 H   0  0  0  0  0  0  0  0  0  0  0  0
    0.6119  -14.9692   24.6370 H   0  0  0  0  0  0  0  0  0  0  0  0
  1  2  1  0
  2  3  1  0
  3  4  1  0
  4  5  2  0
  4  6  1  0
  6  7  2  0
  7  8  1  0
  8  9  1  0
  9 10  1  0
 10 11  2  0
 10 12  1  0
 12 13  1  0
 13 14  1  0
 14 15  2  0
 15 16  1  0
 16 17  2  0
 17 18  1  0
 18 19  2  0
 19 20  1  0
 20 21  1  0
  9 22  1  0
 22  6  1  0
 21 13  2  0
 20 16  1  0
  1 23  1  0
  1 24  1  0
  1 25  1  0
  2 26  1  0
  2 27  1  0
  7 28  1  0
  8 29  1  0
  8 30  1  0
 12 31  1  0
 14 32  1  0
 18 33  1  0
 19 34  1  0
 21 35  1  0
 22 36  1  0
 22 37  1  0
M  END
>  <Energy>  (1003) 
1101.4682451661693

>  <compound_id>  (1003) 
87585

>  <target_id>  (1003) 
1

>  <reference_id>  (1003) 
106

>  <inspiration_ids>  (1003) 
[106, 123]

>  <energy_score>  (1003) 
1095.1142576447082

>  <distance_score>  (1003) 
14.372757085917922

>  <path>  (1003) 
/opt/xchem-fragalysis-2/maxwin/BulkDock/SCRATCH/511017/C87585-P106/C87585-P106.minimised.mol

>  <scratch_subdir>  (1003) 
/opt/xchem-fragalysis-2/maxwin/BulkDock/SCRATCH/511017/C87585-P106

>  <fragmenstein_runtime>  (1003) 
24.613945484161377

>  <fragmenstein_outcome>  (1003) 
too moved

>  <fragmenstein_mode>  (1003) 
expansion

>  <fragmenstein_error>  (1003) 


$$$$
C87585-P123
     RDKit          3D

 37 39  0  0  0  0  0  0  0  0999 V2000
   -8.9200  -23.0558   28.3231 C   0  0  0  0  0  0  0  0  0  0  0  0
   -7.3987  -22.2216   28.9068 C   0  0  0  0  0  0  0  0  0  0  0  0
   -7.0327  -21.5579   31.0816 O   0  0  0  0  0  0  0  0  0  0  0  0
   -5.7421  -20.3196   31.4710 C   0  0  0  0  0  0  0  0  0  0  0  0
   -5.4219  -19.3792   30.6937 O   0  0  0  0  0  0  0  0  0  0  0  0
   -4.8699  -20.3416   32.6365 C   0  0  0  0  0  0  0  0  0  0  0  0
   -4.7661  -19.3233   33.4480 C   0  0  0  0  0  0  0  0  0  0  0  0
   -3.2397  -19.4926   33.2632 C   0  0  0  0  0  0  0  0  0  0  0  0
   -2.6470  -19.0415   31.6515 N   0  0  0  0  0  0  0  0  0  0  0  0
   -2.2221  -17.6886   31.7360 C   0  0  0  0  0  0  0  0  0  0  0  0
   -2.9469  -16.7690   31.5058 O   0  0  0  0  0  0  0  0  0  0  0  0
   -0.7936  -17.7205   32.0395 N   0  0  0  0  0  0  0  0  0  0  0  0
    0.1101  -16.6994   32.2369 C   0  0  0  0  0  0  0  0  0  0  0  0
    1.6019  -16.9502   32.1303 C   0  0  0  0  0  0  0  0  0  0  0  0
    2.5724  -16.1516   32.4757 N   0  0  0  0  0  0  0  0  0  0  0  0
    2.1719  -14.9755   33.0374 C   0  0  0  0  0  0  0  0  0  0  0  0
    2.9033  -14.0697   33.6494 N   0  0  0  0  0  0  0  0  0  0  0  0
    2.0622  -13.0435   33.9446 C   0  0  0  0  0  0  0  0  0  0  0  0
    0.7716  -13.3792   33.6146 C   0  0  0  0  0  0  0  0  0  0  0  0
    0.8416  -14.5931   33.0031 N   0  0  0  0  0  0  0  0  0  0  0  0
   -0.1779  -15.4275   32.5577 C   0  0  0  0  0  0  0  0  0  0  0  0
   -3.2876  -20.1048   32.6170 C   0  0  0  0  0  0  0  0  0  0  0  0
   -9.8092  -22.4085   28.3889 H   0  0  0  0  0  0  0  0  0  0  0  0
   -9.1381  -24.0297   28.7950 H   0  0  0  0  0  0  0  0  0  0  0  0
   -8.7274  -23.2499   27.2894 H   0  0  0  0  0  0  0  0  0  0  0  0
   -7.4895  -21.4441   28.0070 H   0  0  0  0  0  0  0  0  0  0  0  0
   -6.4935  -22.7242   28.3369 H   0  0  0  0  0  0  0  0  0  0  0  0
   -5.4060  -18.4581   33.5293 H   0  0  0  0  0  0  0  0  0  0  0  0
   -2.4702  -19.7233   34.1793 H   0  0  0  0  0  0  0  0  0  0  0  0
   -3.0929  -18.4104   33.6796 H   0  0  0  0  0  0  0  0  0  0  0  0
   -0.4896  -18.6826   32.0971 H   0  0  0  0  0  0  0  0  0  0  0  0
    1.8712  -17.9290   31.6973 H   0  0  0  0  0  0  0  0  0  0  0  0
    2.4152  -12.1453   34.4343 H   0  0  0  0  0  0  0  0  0  0  0  0
   -0.1771  -12.8919   33.7834 H   0  0  0  0  0  0  0  0  0  0  0  0
   -1.1919  -15.0540   32.6442 H   0  0  0  0  0  0  0  0  0  0  0  0
   -3.3082  -20.7594   31.6458 H   0  0  0  0  0  0  0  0  0  0  0  0
   -2.5842  -21.0999   32.8837 H   0  0  0  0  0  0  0  0  0  0  0  0
  1  2  1  0
  2  3  1  0
  3  4  1  0
  4  5  2  0
  4  6  1  0
  6  7  2  0
  7  8  1  0
  8  9  1  0
  9 10  1  0
 10 11  2  0
 10 12  1  0
 12 13  1  0
 13 14  1  0
 14 15  2  0
 15 16  1  0
 16 17  2  0
 17 18  1  0
 18 19  2  0
 19 20  1  0
 20 21  1  0
  9 22  1  0
 22  6  1  0
 21 13  2  0
 20 16  1  0
  1 23  1  0
  1 24  1  0
  1 25  1  0
  2 26  1  0
  2 27  1  0
  7 28  1  0
  8 29  1  0
  8 30  1  0
 12 31  1  0
 14 32  1  0
 18 33  1  0
 19 34  1  0
 21 35  1  0
 22 36  1  0
 22 37  1  0
M  END
>  <Energy>  (1004) 
999.87580433638482

>  <compound_id>  (1004) 
87585

>  <target_id>  (1004) 
1

>  <reference_id>  (1004) 
123

>  <inspiration_ids>  (1004) 
[106, 123]

>  <energy_score>  (1004) 
993.5218168149372

>  <distance_score>  (1004) 
18.994813907941353

>  <path>  (1004) 
/opt/xchem-fragalysis-2/maxwin/BulkDock/SCRATCH/511017/C87585-P123/C87585-P123.minimised.mol

>  <scratch_subdir>  (1004) 
/opt/xchem-fragalysis-2/maxwin/BulkDock/SCRATCH/511017/C87585-P123

>  <fragmenstein_runtime>  (1004) 
22.25945806503296

>  <fragmenstein_outcome>  (1004) 
too moved

>  <fragmenstein_mode>  (1004) 
expansion

>  <fragmenstein_error>  (1004) 


$$$$
C22509-P106
     RDKit          3D

 40 42  0  0  0  0  0  0  0  0999 V2000
    4.2071  -17.6821   27.4309 C   0  0  0  0  0  0  0  0  0  0  0  0
    5.5534  -17.1830   27.9872 C   0  0  0  0  0  0  0  0  0  0  0  0
    6.1066  -16.0812   27.2274 O   0  0  0  0  0  0  0  0  0  0  0  0
    6.6069  -15.0107   27.9119 C   0  0  0  0  0  0  0  0  0  0  0  0
    6.3787  -14.6922   29.0679 O   0  0  0  0  0  0  0  0  0  0  0  0
    7.6033  -14.2690   27.0957 C   0  0  0  0  0  0  0  0  0  0  0  0
    8.5155  -14.9735   26.4194 C   0  0  0  0  0  0  0  0  0  0  0  0
    9.5594  -14.1877   25.7435 C   0  0  0  0  0  0  0  0  0  0  0  0
    9.5275  -12.7222   26.2308 C   0  0  0  0  0  0  0  0  0  0  0  0
    8.2450  -11.9405   25.9499 N   0  0  0  0  0  0  0  0  0  0  0  0
    8.5546  -10.4794   25.8169 C   0  0  0  0  0  0  0  0  0  0  0  0
    8.5699   -9.6305   26.6331 O   0  0  0  0  0  0  0  0  0  0  0  0
    8.7612  -10.4010   24.3422 N   0  0  0  0  0  0  0  0  0  0  0  0
    9.1159   -9.3349   23.5355 C   0  0  0  0  0  0  0  0  0  0  0  0
    8.9045   -9.3880   22.0356 C   0  0  0  0  0  0  0  0  0  0  0  0
    9.0457   -8.4190   21.1772 N   0  0  0  0  0  0  0  0  0  0  0  0
    9.4730   -7.2316   21.6874 C   0  0  0  0  0  0  0  0  0  0  0  0
    9.6175   -6.0727   21.0814 N   0  0  0  0  0  0  0  0  0  0  0  0
   10.2593   -5.2663   21.9816 C   0  0  0  0  0  0  0  0  0  0  0  0
   10.3624   -5.8790   23.2060 C   0  0  0  0  0  0  0  0  0  0  0  0
    9.8251   -7.1257   23.0282 N   0  0  0  0  0  0  0  0  0  0  0  0
    9.6111   -8.1526   23.9458 C   0  0  0  0  0  0  0  0  0  0  0  0
    7.7328  -12.7637   27.1885 C   0  0  0  0  0  0  0  0  0  0  0  0
    3.4439  -16.9137   27.5336 H   0  0  0  0  0  0  0  0  0  0  0  0
    3.8791  -18.5779   27.9652 H   0  0  0  0  0  0  0  0  0  0  0  0
    4.2998  -17.9122   26.3651 H   0  0  0  0  0  0  0  0  0  0  0  0
    5.4772  -16.9501   29.0516 H   0  0  0  0  0  0  0  0  0  0  0  0
    6.2775  -18.0009   27.8987 H   0  0  0  0  0  0  0  0  0  0  0  0
    8.5103  -16.0562   26.3472 H   0  0  0  0  0  0  0  0  0  0  0  0
   10.5443  -14.6124   25.9681 H   0  0  0  0  0  0  0  0  0  0  0  0
    9.4272  -14.2287   24.6574 H   0  0  0  0  0  0  0  0  0  0  0  0
   10.2881  -12.2227   25.6094 H   0  0  0  0  0  0  0  0  0  0  0  0
    9.9501  -12.5663   27.2391 H   0  0  0  0  0  0  0  0  0  0  0  0
    8.5961  -11.3129   23.9336 H   0  0  0  0  0  0  0  0  0  0  0  0
    8.5591  -10.3643   21.6548 H   0  0  0  0  0  0  0  0  0  0  0  0
   10.6182   -4.2854   21.7089 H   0  0  0  0  0  0  0  0  0  0  0  0
   10.7778   -5.5523   24.1479 H   0  0  0  0  0  0  0  0  0  0  0  0
    9.8413   -7.9353   24.9813 H   0  0  0  0  0  0  0  0  0  0  0  0
    6.7038  -12.3811   27.2643 H   0  0  0  0  0  0  0  0  0  0  0  0
    8.1823  -12.4096   28.1300 H   0  0  0  0  0  0  0  0  0  0  0  0
  1  2  1  0
  2  3  1  0
  3  4  1  0
  4  5  2  0
  4  6  1  0
  6  7  2  0
  7  8  1  0
  8  9  1  0
  9 10  1  0
 10 11  1  0
 11 12  2  0
 11 13  1  0
 13 14  1  0
 14 15  1  0
 15 16  2  0
 16 17  1  0
 17 18  2  0
 18 19  1  0
 19 20  2  0
 20 21  1  0
 21 22  1  0
 10 23  1  0
 23  6  1  0
 22 14  2  0
 21 17  1  0
  1 24  1  0
  1 25  1  0
  1 26  1  0
  2 27  1  0
  2 28  1  0
  7 29  1  0
  8 30  1  0
  8 31  1  0
  9 32  1  0
  9 33  1  0
 13 34  1  0
 15 35  1  0
 19 36  1  0
 20 37  1  0
 22 38  1  0
 23 39  1  0
 23 40  1  0
M  END
>  <Energy>  (1005) 
58.370444432959339

>  <compound_id>  (1005) 
22509

>  <target_id>  (1005) 
1

>  <reference_id>  (1005) 
106

>  <inspiration_ids>  (1005) 
[106, 123]

>  <energy_score>  (1005) 
9.068594901773054

>  <distance_score>  (1005) 
16.846787964818386

>  <path>  (1005) 
/opt/xchem-fragalysis-2/maxwin/BulkDock/SCRATCH/511017/C22509-P106/C22509-P106.minimised.mol

>  <scratch_subdir>  (1005) 
/opt/xchem-fragalysis-2/maxwin/BulkDock/SCRATCH/511017/C22509-P106

>  <fragmenstein_runtime>  (1005) 
34.35538840293884

>  <fragmenstein_outcome>  (1005) 
too moved

>  <fragmenstein_mode>  (1005) 
expansion

>  <fragmenstein_error>  (1005) 


$$$$
C22509-P123
     RDKit          3D

 40 42  0  0  0  0  0  0  0  0999 V2000
    3.3987  -11.0221   33.9321 C   0  0  0  0  0  0  0  0  0  0  0  0
    4.3505  -10.4784   32.8648 C   0  0  0  0  0  0  0  0  0  0  0  0
    5.2119   -9.4155   33.3077 O   0  0  0  0  0  0  0  0  0  0  0  0
    5.3771   -8.3505   32.4753 C   0  0  0  0  0  0  0  0  0  0  0  0
    4.9198   -7.2476   32.7516 O   0  0  0  0  0  0  0  0  0  0  0  0
    6.2348   -8.5221   31.2504 C   0  0  0  0  0  0  0  0  0  0  0  0
    6.6144   -9.6871   30.7175 C   0  0  0  0  0  0  0  0  0  0  0  0
    7.5795   -9.6196   29.5986 C   0  0  0  0  0  0  0  0  0  0  0  0
    8.1988   -8.1896   29.5561 C   0  0  0  0  0  0  0  0  0  0  0  0
    7.2046   -7.1088   29.1360 N   0  0  0  0  0  0  0  0  0  0  0  0
    7.9250   -5.9944   28.4187 C   0  0  0  0  0  0  0  0  0  0  0  0
    8.4015   -5.0071   28.8420 O   0  0  0  0  0  0  0  0  0  0  0  0
    7.8708   -6.5131   27.0289 N   0  0  0  0  0  0  0  0  0  0  0  0
    8.2800   -5.9460   25.8381 C   0  0  0  0  0  0  0  0  0  0  0  0
    8.6246   -4.4716   25.6796 C   0  0  0  0  0  0  0  0  0  0  0  0
    8.9497   -3.8508   24.5779 N   0  0  0  0  0  0  0  0  0  0  0  0
    9.0410   -4.6194   23.4554 C   0  0  0  0  0  0  0  0  0  0  0  0
    9.3087   -4.2710   22.2125 N   0  0  0  0  0  0  0  0  0  0  0  0
    9.3775   -5.4444   21.5119 C   0  0  0  0  0  0  0  0  0  0  0  0
    9.0564   -6.5218   22.2934 C   0  0  0  0  0  0  0  0  0  0  0  0
    8.8241   -5.9922   23.5311 N   0  0  0  0  0  0  0  0  0  0  0  0
    8.4276   -6.6376   24.6967 C   0  0  0  0  0  0  0  0  0  0  0  0
    6.7713   -7.2321   30.6377 C   0  0  0  0  0  0  0  0  0  0  0  0
    3.9634  -11.2927   34.8307 H   0  0  0  0  0  0  0  0  0  0  0  0
    2.6890  -10.2468   34.2343 H   0  0  0  0  0  0  0  0  0  0  0  0
    2.8654  -11.9072   33.5795 H   0  0  0  0  0  0  0  0  0  0  0  0
    5.0171  -11.3027   32.6115 H   0  0  0  0  0  0  0  0  0  0  0  0
    3.7642  -10.1464   32.0044 H   0  0  0  0  0  0  0  0  0  0  0  0
    6.3185  -10.6581   31.0841 H   0  0  0  0  0  0  0  0  0  0  0  0
    8.3821  -10.3483   29.7560 H   0  0  0  0  0  0  0  0  0  0  0  0
    7.0814   -9.8566   28.6521 H   0  0  0  0  0  0  0  0  0  0  0  0
    8.8555   -7.9332   30.4060 H   0  0  0  0  0  0  0  0  0  0  0  0
    8.9251   -8.2382   28.7299 H   0  0  0  0  0  0  0  0  0  0  0  0
    7.4567   -7.4335   27.0342 H   0  0  0  0  0  0  0  0  0  0  0  0
    8.5582   -3.8717   26.6016 H   0  0  0  0  0  0  0  0  0  0  0  0
    9.6605   -5.4756   20.4769 H   0  0  0  0  0  0  0  0  0  0  0  0
    8.9977   -7.5803   22.0848 H   0  0  0  0  0  0  0  0  0  0  0  0
    8.2688   -7.7044   24.6241 H   0  0  0  0  0  0  0  0  0  0  0  0
    7.5080   -6.7323   31.2887 H   0  0  0  0  0  0  0  0  0  0  0  0
    5.9356   -6.5166   30.6401 H   0  0  0  0  0  0  0  0  0  0  0  0
  1  2  1  0
  2  3  1  0
  3  4  1  0
  4  5  2  0
  4  6  1  0
  6  7  2  0
  7  8  1  0
  8  9  1  0
  9 10  1  0
 10 11  1  0
 11 12  2  0
 11 13  1  0
 13 14  1  0
 14 15  1  0
 15 16  2  0
 16 17  1  0
 17 18  2  0
 18 19  1  0
 19 20  2  0
 20 21  1  0
 21 22  1  0
 10 23  1  0
 23  6  1  0
 22 14  2  0
 21 17  1  0
  1 24  1  0
  1 25  1  0
  1 26  1  0
  2 27  1  0
  2 28  1  0
  7 29  1  0
  8 30  1  0
  8 31  1  0
  9 32  1  0
  9 33  1  0
 13 34  1  0
 15 35  1  0
 19 36  1  0
 20 37  1  0
 22 38  1  0
 23 39  1  0
 23 40  1  0
M  END
>  <Energy>  (1006) 
72.373446803837481

>  <compound_id>  (1006) 
22509

>  <target_id>  (1006) 
1

>  <reference_id>  (1006) 
123

>  <inspiration_ids>  (1006) 
[106, 123]

>  <energy_score>  (1006) 
23.071597272653776

>  <distance_score>  (1006) 
17.99675768447193

>  <path>  (1006) 
/opt/xchem-fragalysis-2/maxwin/BulkDock/SCRATCH/511017/C22509-P123/C22509-P123.minimised.mol

>  <scratch_subdir>  (1006) 
/opt/xchem-fragalysis-2/maxwin/BulkDock/SCRATCH/511017/C22509-P123

>  <fragmenstein_runtime>  (1006) 
20.892198085784912

>  <fragmenstein_outcome>  (1006) 
too moved

>  <fragmenstein_mode>  (1006) 
expansion

>  <fragmenstein_error>  (1006) 


$$$$
C7565-P106
     RDKit          3D

 39 42  0  0  0  0  0  0  0  0999 V2000
   -7.9182  -22.3172   33.3167 C   0  0  0  0  0  0  0  0  0  0  0  0
   -7.1895  -21.1744   32.6342 C   0  0  0  0  0  0  0  0  0  0  0  0
   -6.9851  -21.6451   30.9725 O   0  0  0  0  0  0  0  0  0  0  0  0
   -7.2187  -22.1614   28.8206 C   0  0  0  0  0  0  0  0  0  0  0  0
   -8.2919  -22.5480   28.2433 O   0  0  0  0  0  0  0  0  0  0  0  0
   -5.7546  -22.2210   27.6196 C   0  0  0  0  0  0  0  0  0  0  0  0
   -4.5454  -21.4631   27.4192 C   0  0  0  0  0  0  0  0  0  0  0  0
   -3.9328  -21.6124   26.0278 C   0  0  0  0  0  0  0  0  0  0  0  0
   -4.4543  -22.5486   25.1844 C   0  0  0  0  0  0  0  0  0  0  0  0
   -5.6881  -23.1070   26.1277 S   0  0  0  0  0  0  0  0  0  0  0  0
   -4.1774  -22.6512   23.4374 C   0  0  0  0  0  0  0  0  0  0  0  0
   -2.9891  -21.8113   22.9044 N   0  0  0  0  0  0  0  0  0  0  0  0
   -2.2788  -21.3619   21.6220 C   0  0  0  0  0  0  0  0  0  0  0  0
   -2.9384  -21.3535   20.2482 C   0  0  0  0  0  0  0  0  0  0  0  0
   -2.4096  -20.5992   19.2548 C   0  0  0  0  0  0  0  0  0  0  0  0
   -1.2276  -19.8987   19.4413 N   0  0  0  0  0  0  0  0  0  0  0  0
   -0.5773  -19.0014   18.6215 C   0  0  0  0  0  0  0  0  0  0  0  0
    0.5360  -18.6218   19.3217 C   0  0  0  0  0  0  0  0  0  0  0  0
    0.5810  -19.2855   20.5243 N   0  0  0  0  0  0  0  0  0  0  0  0
   -0.5136  -20.0322   20.6190 C   0  0  0  0  0  0  0  0  0  0  0  0
   -1.0496  -20.7797   21.6763 N   0  0  0  0  0  0  0  0  0  0  0  0
   -2.3230  -21.4154   24.1008 C   0  0  0  0  0  0  0  0  0  0  0  0
   -3.1305  -20.6992   25.2351 C   0  0  0  0  0  0  0  0  0  0  0  0
   -7.6351  -23.2277   32.7830 H   0  0  0  0  0  0  0  0  0  0  0  0
   -8.9883  -22.4568   33.1453 H   0  0  0  0  0  0  0  0  0  0  0  0
   -7.6453  -22.3163   34.3685 H   0  0  0  0  0  0  0  0  0  0  0  0
   -6.1413  -20.9363   32.8656 H   0  0  0  0  0  0  0  0  0  0  0  0
   -7.5790  -20.1782   32.8630 H   0  0  0  0  0  0  0  0  0  0  0  0
   -4.2306  -20.6598   28.0785 H   0  0  0  0  0  0  0  0  0  0  0  0
   -3.9904  -23.7121   23.2411 H   0  0  0  0  0  0  0  0  0  0  0  0
   -5.1007  -22.3132   22.9588 H   0  0  0  0  0  0  0  0  0  0  0  0
   -3.8692  -21.8946   20.1471 H   0  0  0  0  0  0  0  0  0  0  0  0
   -2.8870  -20.5043   18.2883 H   0  0  0  0  0  0  0  0  0  0  0  0
   -0.9633  -18.7239   17.6529 H   0  0  0  0  0  0  0  0  0  0  0  0
    1.3036  -17.9228   19.0241 H   0  0  0  0  0  0  0  0  0  0  0  0
   -1.8353  -22.3234   24.4654 H   0  0  0  0  0  0  0  0  0  0  0  0
   -1.6700  -20.6974   23.6694 H   0  0  0  0  0  0  0  0  0  0  0  0
   -2.5572  -20.0884   25.9297 H   0  0  0  0  0  0  0  0  0  0  0  0
   -3.8924  -20.1058   24.7317 H   0  0  0  0  0  0  0  0  0  0  0  0
  1  2  1  0
  2  3  1  0
  3  4  1  0
  4  5  2  0
  4  6  1  0
  6  7  2  0
  7  8  1  0
  8  9  2  0
  9 10  1  0
  9 11  1  0
 11 12  1  0
 12 13  1  0
 13 14  1  0
 14 15  2  0
 15 16  1  0
 16 17  1  0
 17 18  2  0
 18 19  1  0
 19 20  2  0
 20 21  1  0
 12 22  1  0
 22 23  1  0
 10  6  1  0
 21 13  2  0
 23  8  1  0
 20 16  1  0
  1 24  1  0
  1 25  1  0
  1 26  1  0
  2 27  1  0
  2 28  1  0
  7 29  1  0
 11 30  1  0
 11 31  1  0
 14 32  1  0
 15 33  1  0
 17 34  1  0
 18 35  1  0
 22 36  1  0
 22 37  1  0
 23 38  1  0
 23 39  1  0
M  END
>  <Energy>  (1007) 
642.89132660472762

>  <compound_id>  (1007) 
7565

>  <target_id>  (1007) 
1

>  <reference_id>  (1007) 
106

>  <inspiration_ids>  (1007) 
[106, 123]

>  <energy_score>  (1007) 
565.0227054370832

>  <distance_score>  (1007) 
18.90317689644382

>  <path>  (1007) 
/opt/xchem-fragalysis-2/maxwin/BulkDock/SCRATCH/511017/C7565-P106/C7565-P106.minimised.mol

>  <scratch_subdir>  (1007) 
/opt/xchem-fragalysis-2/maxwin/BulkDock/SCRATCH/511017/C7565-P106

>  <fragmenstein_runtime>  (1007) 
25.07495951652527

>  <fragmenstein_outcome>  (1007) 
too moved

>  <fragmenstein_mode>  (1007) 
expansion

>  <fragmenstein_error>  (1007) 


$$$$
C7565-P123
     RDKit          3D

 39 42  0  0  0  0  0  0  0  0999 V2000
   -3.3765  -20.8555   25.6873 C   0  0  0  0  0  0  0  0  0  0  0  0
   -2.6983  -19.8674   26.6855 C   0  0  0  0  0  0  0  0  0  0  0  0
   -2.0521  -18.5287   26.1446 O   0  0  0  0  0  0  0  0  0  0  0  0
   -2.5776  -17.2852   26.5300 C   0  0  0  0  0  0  0  0  0  0  0  0
   -3.1175  -17.1125   27.6090 O   0  0  0  0  0  0  0  0  0  0  0  0
   -2.6420  -16.0607   25.6057 C   0  0  0  0  0  0  0  0  0  0  0  0
   -2.1961  -14.7421   26.2245 C   0  0  0  0  0  0  0  0  0  0  0  0
   -1.2010  -13.6630   25.4009 C   0  0  0  0  0  0  0  0  0  0  0  0
   -0.9815  -14.5305   24.2645 C   0  0  0  0  0  0  0  0  0  0  0  0
   -2.6646  -15.4477   24.1802 S   0  0  0  0  0  0  0  0  0  0  0  0
    0.1076  -14.0992   23.2342 C   0  0  0  0  0  0  0  0  0  0  0  0
    1.9434  -13.6289   23.6069 N   0  0  0  0  0  0  0  0  0  0  0  0
    3.4486  -13.4575   22.7685 C   0  0  0  0  0  0  0  0  0  0  0  0
    3.7861  -13.9006   21.2685 C   0  0  0  0  0  0  0  0  0  0  0  0
    4.7840  -13.3274   20.5739 C   0  0  0  0  0  0  0  0  0  0  0  0
    5.6191  -12.4512   21.2126 N   0  0  0  0  0  0  0  0  0  0  0  0
    6.6373  -11.6692   20.7225 C   0  0  0  0  0  0  0  0  0  0  0  0
    7.1177  -10.9937   21.8148 C   0  0  0  0  0  0  0  0  0  0  0  0
    6.4289  -11.3623   22.9472 N   0  0  0  0  0  0  0  0  0  0  0  0
    5.5182  -12.2594   22.5760 C   0  0  0  0  0  0  0  0  0  0  0  0
    4.4931  -12.8406   23.3285 N   0  0  0  0  0  0  0  0  0  0  0  0
    1.9290  -12.9498   24.8063 C   0  0  0  0  0  0  0  0  0  0  0  0
    0.7108  -13.2714   25.9925 C   0  0  0  0  0  0  0  0  0  0  0  0
   -3.6268  -21.7828   26.2138 H   0  0  0  0  0  0  0  0  0  0  0  0
   -2.7664  -21.1126   24.8218 H   0  0  0  0  0  0  0  0  0  0  0  0
   -4.3032  -20.4620   25.2763 H   0  0  0  0  0  0  0  0  0  0  0  0
   -1.9381  -20.4068   27.2264 H   0  0  0  0  0  0  0  0  0  0  0  0
   -3.4761  -19.6925   27.4284 H   0  0  0  0  0  0  0  0  0  0  0  0
   -2.0222  -14.8971   27.3109 H   0  0  0  0  0  0  0  0  0  0  0  0
   -0.2325  -13.1695   22.8106 H   0  0  0  0  0  0  0  0  0  0  0  0
    0.0510  -14.6293   22.2855 H   0  0  0  0  0  0  0  0  0  0  0  0
    3.1397  -14.5988   20.7644 H   0  0  0  0  0  0  0  0  0  0  0  0
    4.9702  -13.5354   19.5294 H   0  0  0  0  0  0  0  0  0  0  0  0
    6.9100  -11.6631   19.6781 H   0  0  0  0  0  0  0  0  0  0  0  0
    7.9217  -10.2712   21.8579 H   0  0  0  0  0  0  0  0  0  0  0  0
    2.8427  -13.4489   25.1198 H   0  0  0  0  0  0  0  0  0  0  0  0
    1.9872  -11.9306   24.4798 H   0  0  0  0  0  0  0  0  0  0  0  0
    0.9588  -12.2934   26.4072 H   0  0  0  0  0  0  0  0  0  0  0  0
    1.1155  -14.0609   26.5926 H   0  0  0  0  0  0  0  0  0  0  0  0
  1  2  1  0
  2  3  1  0
  3  4  1  0
  4  5  2  0
  4  6  1  0
  6  7  2  0
  7  8  1  0
  8  9  2  0
  9 10  1  0
  9 11  1  0
 11 12  1  0
 12 13  1  0
 13 14  1  0
 14 15  2  0
 15 16  1  0
 16 17  1  0
 17 18  2  0
 18 19  1  0
 19 20  2  0
 20 21  1  0
 12 22  1  0
 22 23  1  0
 10  6  1  0
 21 13  2  0
 23  8  1  0
 20 16  1  0
  1 24  1  0
  1 25  1  0
  1 26  1  0
  2 27  1  0
  2 28  1  0
  7 29  1  0
 11 30  1  0
 11 31  1  0
 14 32  1  0
 15 33  1  0
 17 34  1  0
 18 35  1  0
 22 36  1  0
 22 37  1  0
 23 38  1  0
 23 39  1  0
M  END
>  <Energy>  (1008) 
418.92639607750601

>  <compound_id>  (1008) 
7565

>  <target_id>  (1008) 
1

>  <reference_id>  (1008) 
123

>  <inspiration_ids>  (1008) 
[106, 123]

>  <energy_score>  (1008) 
341.05777490986407

>  <distance_score>  (1008) 
14.780481251867243

>  <path>  (1008) 
/opt/xchem-fragalysis-2/maxwin/BulkDock/SCRATCH/511017/C7565-P123/C7565-P123.minimised.mol

>  <scratch_subdir>  (1008) 
/opt/xchem-fragalysis-2/maxwin/BulkDock/SCRATCH/511017/C7565-P123

>  <fragmenstein_runtime>  (1008) 
22.484906911849976

>  <fragmenstein_outcome>  (1008) 
too moved

>  <fragmenstein_mode>  (1008) 
expansion

>  <fragmenstein_error>  (1008) 


$$$$
C87587-P106
     RDKit          3D

 41 43  0  0  0  0  0  0  0  0999 V2000
    7.2677  -12.0306   31.2851 C   0  0  0  0  0  0  0  0  0  0  0  0
    8.5130  -11.2577   30.8085 C   0  0  0  0  0  0  0  0  0  0  0  0
    8.0724  -10.0950   30.0800 O   0  0  0  0  0  0  0  0  0  0  0  0
    8.6676   -9.8556   28.8607 C   0  0  0  0  0  0  0  0  0  0  0  0
    9.8858   -9.8596   28.7387 O   0  0  0  0  0  0  0  0  0  0  0  0
    7.5582   -9.6821   27.7634 C   0  0  0  0  0  0  0  0  0  0  0  0
    8.2862   -9.2846   26.1218 S   0  0  0  0  0  0  0  0  0  0  0  0
    9.2968  -10.2610   25.7796 O   0  0  0  0  0  0  0  0  0  0  0  0
    7.1707   -9.1079   25.2054 O   0  0  0  0  0  0  0  0  0  0  0  0
    9.0067   -7.7245   26.0527 N   0  0  0  0  0  0  0  0  0  0  0  0
   10.4647   -7.6103   25.7470 C   0  0  0  0  0  0  0  0  0  0  0  0
   10.7871   -6.8752   24.4520 C   0  0  0  0  0  0  0  0  0  0  0  0
   10.5187   -7.5498   23.1373 C   0  0  0  0  0  0  0  0  0  0  0  0
   10.9177   -7.1778   21.9590 N   0  0  0  0  0  0  0  0  0  0  0  0
   11.6982   -6.0618   21.9064 C   0  0  0  0  0  0  0  0  0  0  0  0
   12.3711   -5.5655   20.8904 N   0  0  0  0  0  0  0  0  0  0  0  0
   12.9647   -4.4245   21.3517 C   0  0  0  0  0  0  0  0  0  0  0  0
   12.7175   -4.2567   22.6941 C   0  0  0  0  0  0  0  0  0  0  0  0
   11.9324   -5.3178   23.0546 N   0  0  0  0  0  0  0  0  0  0  0  0
   11.4814   -5.7238   24.3133 C   0  0  0  0  0  0  0  0  0  0  0  0
    6.2668   -8.8674   28.1100 C   0  0  0  0  0  0  0  0  0  0  0  0
    5.6025  -10.1594   28.6021 C   0  0  0  0  0  0  0  0  0  0  0  0
    6.5903  -10.9414   27.7097 C   0  0  0  0  0  0  0  0  0  0  0  0
    6.6486  -12.3030   30.4381 H   0  0  0  0  0  0  0  0  0  0  0  0
    6.6620  -11.3920   31.9364 H   0  0  0  0  0  0  0  0  0  0  0  0
    7.5605  -12.9248   31.8396 H   0  0  0  0  0  0  0  0  0  0  0  0
    9.1327  -11.9067   30.1799 H   0  0  0  0  0  0  0  0  0  0  0  0
    9.0996  -10.9203   31.6680 H   0  0  0  0  0  0  0  0  0  0  0  0
    8.4262   -7.1162   25.4690 H   0  0  0  0  0  0  0  0  0  0  0  0
   10.9616   -8.5841   25.7408 H   0  0  0  0  0  0  0  0  0  0  0  0
   10.9089   -7.0627   26.5879 H   0  0  0  0  0  0  0  0  0  0  0  0
    9.9058   -8.4658   23.2047 H   0  0  0  0  0  0  0  0  0  0  0  0
   13.5393   -3.7847   20.6951 H   0  0  0  0  0  0  0  0  0  0  0  0
   13.0233   -3.4898   23.3900 H   0  0  0  0  0  0  0  0  0  0  0  0
   11.8041   -5.1225   25.1543 H   0  0  0  0  0  0  0  0  0  0  0  0
    6.3907   -8.0933   28.8736 H   0  0  0  0  0  0  0  0  0  0  0  0
    5.7660   -8.4117   27.2500 H   0  0  0  0  0  0  0  0  0  0  0  0
    4.5416  -10.2296   28.4063 H   0  0  0  0  0  0  0  0  0  0  0  0
    5.7315  -10.2998   29.6767 H   0  0  0  0  0  0  0  0  0  0  0  0
    7.0074  -11.8437   28.1510 H   0  0  0  0  0  0  0  0  0  0  0  0
    6.2560  -11.2065   26.7113 H   0  0  0  0  0  0  0  0  0  0  0  0
  1  2  1  0
  2  3  1  0
  3  4  1  0
  4  5  2  0
  4  6  1  0
  6  7  1  0
  7  8  2  0
  7  9  2  0
  7 10  1  0
 10 11  1  0
 11 12  1  0
 12 13  1  0
 13 14  2  0
 14 15  1  0
 15 16  2  0
 16 17  1  0
 17 18  2  0
 18 19  1  0
 19 20  1  0
  6 21  1  0
 21 22  1  0
 22 23  1  0
 23  6  1  0
 20 12  2  0
 19 15  1  0
  1 24  1  0
  1 25  1  0
  1 26  1  0
  2 27  1  0
  2 28  1  0
 10 29  1  0
 11 30  1  0
 11 31  1  0
 13 32  1  0
 17 33  1  0
 18 34  1  0
 20 35  1  0
 21 36  1  0
 21 37  1  0
 22 38  1  0
 22 39  1  0
 23 40  1  0
 23 41  1  0
M  END
>  <Energy>  (1009) 
-64.438772541392154

>  <compound_id>  (1009) 
87587

>  <target_id>  (1009) 
1

>  <reference_id>  (1009) 
106

>  <inspiration_ids>  (1009) 
[106, 123]

>  <energy_score>  (1009) 
-116.86632734441696

>  <distance_score>  (1009) 
17.834510748611535

>  <path>  (1009) 
/opt/xchem-fragalysis-2/maxwin/BulkDock/SCRATCH/511017/C87587-P106/C87587-P106.minimised.mol

>  <scratch_subdir>  (1009) 
/opt/xchem-fragalysis-2/maxwin/BulkDock/SCRATCH/511017/C87587-P106

>  <fragmenstein_runtime>  (1009) 
43.99320435523987

>  <fragmenstein_outcome>  (1009) 
too moved

>  <fragmenstein_mode>  (1009) 
expansion

>  <fragmenstein_error>  (1009) 


$$$$
C87587-P123
     RDKit          3D

 41 43  0  0  0  0  0  0  0  0999 V2000
  -12.3799  -24.9434   26.6222 C   0  0  0  0  0  0  0  0  0  0  0  0
  -12.2828  -23.5723   25.9749 C   0  0  0  0  0  0  0  0  0  0  0  0
  -11.9376  -22.6280   27.0099 O   0  0  0  0  0  0  0  0  0  0  0  0
  -11.3557  -21.4285   26.6417 C   0  0  0  0  0  0  0  0  0  0  0  0
  -11.7700  -20.9145   25.5959 O   0  0  0  0  0  0  0  0  0  0  0  0
   -9.8441  -20.8680   27.8595 C   0  0  0  0  0  0  0  0  0  0  0  0
   -9.0088  -18.4775   27.9374 S   0  0  0  0  0  0  0  0  0  0  0  0
   -7.5830  -18.4905   28.2307 O   0  0  0  0  0  0  0  0  0  0  0  0
   -9.9709  -17.6714   28.7034 O   0  0  0  0  0  0  0  0  0  0  0  0
   -9.1125  -16.8913   26.5218 N   0  0  0  0  0  0  0  0  0  0  0  0
   -8.3822  -16.5594   25.1056 C   0  0  0  0  0  0  0  0  0  0  0  0
   -7.9343  -15.0772   24.4654 C   0  0  0  0  0  0  0  0  0  0  0  0
   -7.2102  -15.2087   23.0931 C   0  0  0  0  0  0  0  0  0  0  0  0
   -6.6808  -14.3028   22.3207 N   0  0  0  0  0  0  0  0  0  0  0  0
   -6.7629  -13.0124   22.7436 C   0  0  0  0  0  0  0  0  0  0  0  0
   -6.3150  -11.9078   22.1641 N   0  0  0  0  0  0  0  0  0  0  0  0
   -6.5168  -10.9025   23.0657 C   0  0  0  0  0  0  0  0  0  0  0  0
   -7.1409  -11.3904   24.1933 C   0  0  0  0  0  0  0  0  0  0  0  0
   -7.3267  -12.7441   23.9890 N   0  0  0  0  0  0  0  0  0  0  0  0
   -7.9224  -13.7575   24.8170 C   0  0  0  0  0  0  0  0  0  0  0  0
  -10.9016  -21.1110   29.4095 C   0  0  0  0  0  0  0  0  0  0  0  0
  -10.9087  -22.6084   29.2524 C   0  0  0  0  0  0  0  0  0  0  0  0
   -9.5883  -22.5326   28.2906 C   0  0  0  0  0  0  0  0  0  0  0  0
  -12.6448  -25.7056   25.8841 H   0  0  0  0  0  0  0  0  0  0  0  0
  -13.1351  -24.9422   27.4153 H   0  0  0  0  0  0  0  0  0  0  0  0
  -11.4283  -25.2209   27.0871 H   0  0  0  0  0  0  0  0  0  0  0  0
  -13.2371  -23.3278   25.5084 H   0  0  0  0  0  0  0  0  0  0  0  0
  -11.5118  -23.6031   25.2012 H   0  0  0  0  0  0  0  0  0  0  0  0
   -8.9436  -16.1272   27.1906 H   0  0  0  0  0  0  0  0  0  0  0  0
   -7.4611  -17.1201   25.0607 H   0  0  0  0  0  0  0  0  0  0  0  0
   -9.0743  -16.9639   24.3546 H   0  0  0  0  0  0  0  0  0  0  0  0
   -7.1514  -16.2519   22.7348 H   0  0  0  0  0  0  0  0  0  0  0  0
   -6.2236   -9.8827   22.8534 H   0  0  0  0  0  0  0  0  0  0  0  0
   -7.4732  -10.9091   25.1022 H   0  0  0  0  0  0  0  0  0  0  0  0
   -8.3228  -13.4102   25.7625 H   0  0  0  0  0  0  0  0  0  0  0  0
  -10.5181  -20.8624   30.3928 H   0  0  0  0  0  0  0  0  0  0  0  0
  -11.9421  -20.7793   29.3201 H   0  0  0  0  0  0  0  0  0  0  0  0
  -11.8554  -23.0259   28.9081 H   0  0  0  0  0  0  0  0  0  0  0  0
  -10.9052  -23.1804   30.1988 H   0  0  0  0  0  0  0  0  0  0  0  0
   -8.5429  -22.7988   28.3714 H   0  0  0  0  0  0  0  0  0  0  0  0
   -9.8130  -23.3497   27.5738 H   0  0  0  0  0  0  0  0  0  0  0  0
  1  2  1  0
  2  3  1  0
  3  4  1  0
  4  5  2  0
  4  6  1  0
  6  7  1  0
  7  8  2  0
  7  9  2  0
  7 10  1  0
 10 11  1  0
 11 12  1  0
 12 13  1  0
 13 14  2  0
 14 15  1  0
 15 16  2  0
 16 17  1  0
 17 18  2  0
 18 19  1  0
 19 20  1  0
  6 21  1  0
 21 22  1  0
 22 23  1  0
 23  6  1  0
 20 12  2  0
 19 15  1  0
  1 24  1  0
  1 25  1  0
  1 26  1  0
  2 27  1  0
  2 28  1  0
 10 29  1  0
 11 30  1  0
 11 31  1  0
 13 32  1  0
 17 33  1  0
 18 34  1  0
 20 35  1  0
 21 36  1  0
 21 37  1  0
 22 38  1  0
 22 39  1  0
 23 40  1  0
 23 41  1  0
M  END
>  <Energy>  (1010) 
330.38885624075766

>  <compound_id>  (1010) 
87587

>  <target_id>  (1010) 
1

>  <reference_id>  (1010) 
123

>  <inspiration_ids>  (1010) 
[106, 123]

>  <energy_score>  (1010) 
277.9613014377304

>  <distance_score>  (1010) 
18.52034883241986

>  <path>  (1010) 
/opt/xchem-fragalysis-2/maxwin/BulkDock/SCRATCH/511017/C87587-P123/C87587-P123.minimised.mol

>  <scratch_subdir>  (1010) 
/opt/xchem-fragalysis-2/maxwin/BulkDock/SCRATCH/511017/C87587-P123

>  <fragmenstein_runtime>  (1010) 
39.76055598258972

>  <fragmenstein_outcome>  (1010) 
too moved

>  <fragmenstein_mode>  (1010) 
expansion

>  <fragmenstein_error>  (1010) 


$$$$
C87588-P106
     RDKit          3D

 40 42  0  0  0  0  0  0  0  0999 V2000
    3.1415  -12.5052   34.1598 C   0  0  0  0  0  0  0  0  0  0  0  0
    4.3907  -11.6141   34.4004 C   0  0  0  0  0  0  0  0  0  0  0  0
    5.3167  -11.6468   33.2742 O   0  0  0  0  0  0  0  0  0  0  0  0
    6.0943  -10.5396   33.0777 C   0  0  0  0  0  0  0  0  0  0  0  0
    6.1689   -9.5911   33.8435 O   0  0  0  0  0  0  0  0  0  0  0  0
    6.7899  -10.5397   31.7464 C   0  0  0  0  0  0  0  0  0  0  0  0
    7.2685  -11.6909   31.1336 C   0  0  0  0  0  0  0  0  0  0  0  0
    7.9055  -11.5806   29.8813 C   0  0  0  0  0  0  0  0  0  0  0  0
    7.9537  -10.3717   29.1638 C   0  0  0  0  0  0  0  0  0  0  0  0
    7.5058   -9.1988   29.7561 C   0  0  0  0  0  0  0  0  0  0  0  0
    7.4663   -7.8284   29.0629 C   0  0  0  0  0  0  0  0  0  0  0  0
    6.4885   -7.2086   29.3822 O   0  0  0  0  0  0  0  0  0  0  0  0
    8.6019   -7.4469   28.2416 N   0  0  0  0  0  0  0  0  0  0  0  0
    8.9579   -6.1550   27.6281 C   0  0  0  0  0  0  0  0  0  0  0  0
    9.1201   -5.9216   26.1375 C   0  0  0  0  0  0  0  0  0  0  0  0
    9.0452   -4.4479   25.7359 C   0  0  0  0  0  0  0  0  0  0  0  0
    9.1102   -3.9256   24.5490 N   0  0  0  0  0  0  0  0  0  0  0  0
    9.2861   -4.8075   23.5313 C   0  0  0  0  0  0  0  0  0  0  0  0
    9.3116   -4.5700   22.2388 N   0  0  0  0  0  0  0  0  0  0  0  0
    9.5987   -5.7662   21.6492 C   0  0  0  0  0  0  0  0  0  0  0  0
    9.6791   -6.7744   22.5796 C   0  0  0  0  0  0  0  0  0  0  0  0
    9.4434   -6.1682   23.7889 N   0  0  0  0  0  0  0  0  0  0  0  0
    9.3457   -6.7186   25.0758 C   0  0  0  0  0  0  0  0  0  0  0  0
    6.9659   -9.3087   31.0751 C   0  0  0  0  0  0  0  0  0  0  0  0
    3.4197  -13.5626   34.1590 H   0  0  0  0  0  0  0  0  0  0  0  0
    2.4145  -12.3499   34.9624 H   0  0  0  0  0  0  0  0  0  0  0  0
    2.6728  -12.2655   33.2047 H   0  0  0  0  0  0  0  0  0  0  0  0
    4.9287  -11.9767   35.2823 H   0  0  0  0  0  0  0  0  0  0  0  0
    4.0604  -10.5882   34.5887 H   0  0  0  0  0  0  0  0  0  0  0  0
    7.2060  -12.6550   31.6271 H   0  0  0  0  0  0  0  0  0  0  0  0
    8.3697  -12.4597   29.4393 H   0  0  0  0  0  0  0  0  0  0  0  0
    8.3745  -10.3658   28.1623 H   0  0  0  0  0  0  0  0  0  0  0  0
    9.2839   -8.1957   28.2523 H   0  0  0  0  0  0  0  0  0  0  0  0
    8.1882   -5.4624   27.9915 H   0  0  0  0  0  0  0  0  0  0  0  0
    9.8951   -5.8584   28.1145 H   0  0  0  0  0  0  0  0  0  0  0  0
    8.9123   -3.7506   26.5820 H   0  0  0  0  0  0  0  0  0  0  0  0
    9.7295   -5.8308   20.5827 H   0  0  0  0  0  0  0  0  0  0  0  0
    9.8761   -7.8319   22.4932 H   0  0  0  0  0  0  0  0  0  0  0  0
    9.4477   -7.7928   25.1556 H   0  0  0  0  0  0  0  0  0  0  0  0
    6.6371   -8.3961   31.5770 H   0  0  0  0  0  0  0  0  0  0  0  0
  1  2  1  0
  2  3  1  0
  3  4  1  0
  4  5  2  0
  4  6  1  0
  6  7  2  0
  7  8  1  0
  8  9  2  0
  9 10  1  0
 10 11  1  0
 11 12  2  0
 11 13  1  0
 13 14  1  0
 14 15  1  0
 15 16  1  0
 16 17  2  0
 17 18  1  0
 18 19  2  0
 19 20  1  0
 20 21  2  0
 21 22  1  0
 22 23  1  0
 10 24  2  0
 24  6  1  0
 23 15  2  0
 22 18  1  0
  1 25  1  0
  1 26  1  0
  1 27  1  0
  2 28  1  0
  2 29  1  0
  7 30  1  0
  8 31  1  0
  9 32  1  0
 13 33  1  0
 14 34  1  0
 14 35  1  0
 16 36  1  0
 20 37  1  0
 21 38  1  0
 23 39  1  0
 24 40  1  0
M  END
>  <Energy>  (1011) 
55.741933551922671

>  <compound_id>  (1011) 
87588

>  <target_id>  (1011) 
1

>  <reference_id>  (1011) 
106

>  <inspiration_ids>  (1011) 
[106, 123]

>  <energy_score>  (1011) 
-4.363044654103646

>  <distance_score>  (1011) 
17.34089764137007

>  <path>  (1011) 
/opt/xchem-fragalysis-2/maxwin/BulkDock/SCRATCH/511017/C87588-P106/C87588-P106.minimised.mol

>  <scratch_subdir>  (1011) 
/opt/xchem-fragalysis-2/maxwin/BulkDock/SCRATCH/511017/C87588-P106

>  <fragmenstein_runtime>  (1011) 
26.220571994781494

>  <fragmenstein_outcome>  (1011) 
too moved

>  <fragmenstein_mode>  (1011) 
expansion

>  <fragmenstein_error>  (1011) 


$$$$
C87588-P123
     RDKit          3D

 40 42  0  0  0  0  0  0  0  0999 V2000
   -3.6620  -20.3335   26.0575 C   0  0  0  0  0  0  0  0  0  0  0  0
   -3.4719  -19.0390   25.2659 C   0  0  0  0  0  0  0  0  0  0  0  0
   -2.6463  -18.0624   25.9448 O   0  0  0  0  0  0  0  0  0  0  0  0
   -3.2333  -17.4810   27.0141 C   0  0  0  0  0  0  0  0  0  0  0  0
   -4.3532  -17.7485   27.4290 O   0  0  0  0  0  0  0  0  0  0  0  0
   -2.3001  -16.5053   27.7488 C   0  0  0  0  0  0  0  0  0  0  0  0
   -2.0047  -17.2018   28.8731 C   0  0  0  0  0  0  0  0  0  0  0  0
   -1.0769  -16.4957   29.4591 C   0  0  0  0  0  0  0  0  0  0  0  0
   -0.5084  -15.2694   28.6639 C   0  0  0  0  0  0  0  0  0  0  0  0
   -0.0679  -13.9075   27.3492 C   0  0  0  0  0  0  0  0  0  0  0  0
    0.7553  -11.8428   27.8696 C   0  0  0  0  0  0  0  0  0  0  0  0
    0.0703  -10.8498   27.9155 O   0  0  0  0  0  0  0  0  0  0  0  0
    2.4554  -11.7307   28.3522 N   0  0  0  0  0  0  0  0  0  0  0  0
    3.3432  -10.5113   28.8403 C   0  0  0  0  0  0  0  0  0  0  0  0
    5.0634  -10.3473   28.2778 C   0  0  0  0  0  0  0  0  0  0  0  0
    5.8652   -9.0470   28.2770 C   0  0  0  0  0  0  0  0  0  0  0  0
    6.7932   -8.5745   27.4965 N   0  0  0  0  0  0  0  0  0  0  0  0
    7.2706   -9.4447   26.5944 C   0  0  0  0  0  0  0  0  0  0  0  0
    7.9865   -9.2476   25.5092 N   0  0  0  0  0  0  0  0  0  0  0  0
    8.3303  -10.5021   25.0809 C   0  0  0  0  0  0  0  0  0  0  0  0
    7.7686  -11.4678   25.8935 C   0  0  0  0  0  0  0  0  0  0  0  0
    7.0021  -10.7873   26.8134 N   0  0  0  0  0  0  0  0  0  0  0  0
    5.9418  -11.2229   27.6831 C   0  0  0  0  0  0  0  0  0  0  0  0
   -1.6201  -14.9301   27.2715 C   0  0  0  0  0  0  0  0  0  0  0  0
   -4.3022  -20.1857   26.9313 H   0  0  0  0  0  0  0  0  0  0  0  0
   -4.1105  -21.1065   25.4281 H   0  0  0  0  0  0  0  0  0  0  0  0
   -2.6968  -20.6975   26.4244 H   0  0  0  0  0  0  0  0  0  0  0  0
   -4.4364  -18.5895   25.0015 H   0  0  0  0  0  0  0  0  0  0  0  0
   -2.9656  -19.2770   24.3253 H   0  0  0  0  0  0  0  0  0  0  0  0
   -2.4456  -18.1141   29.2365 H   0  0  0  0  0  0  0  0  0  0  0  0
   -0.7073  -16.7409   30.4535 H   0  0  0  0  0  0  0  0  0  0  0  0
    0.0350  -15.1437   29.6751 H   0  0  0  0  0  0  0  0  0  0  0  0
    2.8803  -12.6013   28.1744 H   0  0  0  0  0  0  0  0  0  0  0  0
    3.2092  -10.4259   29.8906 H   0  0  0  0  0  0  0  0  0  0  0  0
    2.6829   -9.7562   28.4796 H   0  0  0  0  0  0  0  0  0  0  0  0
    5.7904   -8.4382   29.1615 H   0  0  0  0  0  0  0  0  0  0  0  0
    8.9611  -10.6479   24.2121 H   0  0  0  0  0  0  0  0  0  0  0  0
    7.8114  -12.5454   25.8667 H   0  0  0  0  0  0  0  0  0  0  0  0
    5.7389  -12.2806   27.6134 H   0  0  0  0  0  0  0  0  0  0  0  0
   -2.1655  -14.6811   26.3078 H   0  0  0  0  0  0  0  0  0  0  0  0
  1  2  1  0
  2  3  1  0
  3  4  1  0
  4  5  2  0
  4  6  1  0
  6  7  2  0
  7  8  1  0
  8  9  2  0
  9 10  1  0
 10 11  1  0
 11 12  2  0
 11 13  1  0
 13 14  1  0
 14 15  1  0
 15 16  1  0
 16 17  2  0
 17 18  1  0
 18 19  2  0
 19 20  1  0
 20 21  2  0
 21 22  1  0
 22 23  1  0
 10 24  2  0
 24  6  1  0
 23 15  2  0
 22 18  1  0
  1 25  1  0
  1 26  1  0
  1 27  1  0
  2 28  1  0
  2 29  1  0
  7 30  1  0
  8 31  1  0
  9 32  1  0
 13 33  1  0
 14 34  1  0
 14 35  1  0
 16 36  1  0
 20 37  1  0
 21 38  1  0
 23 39  1  0
 24 40  1  0
M  END
>  <Energy>  (1012) 
768.8393628429867

>  <compound_id>  (1012) 
87588

>  <target_id>  (1012) 
1

>  <reference_id>  (1012) 
123

>  <inspiration_ids>  (1012) 
[106, 123]

>  <energy_score>  (1012) 
708.7343846369616

>  <distance_score>  (1012) 
14.329990540859312

>  <path>  (1012) 
/opt/xchem-fragalysis-2/maxwin/BulkDock/SCRATCH/511017/C87588-P123/C87588-P123.minimised.mol

>  <scratch_subdir>  (1012) 
/opt/xchem-fragalysis-2/maxwin/BulkDock/SCRATCH/511017/C87588-P123

>  <fragmenstein_runtime>  (1012) 
24.396591424942017

>  <fragmenstein_outcome>  (1012) 
too moved

>  <fragmenstein_mode>  (1012) 
expansion

>  <fragmenstein_error>  (1012) 


$$$$
C87589-P106
     RDKit          3D

 37 39  0  0  0  0  0  0  0  0999 V2000
   -4.9792  -20.7863   22.3181 C   0  0  0  0  0  0  0  0  0  0  0  0
   -4.0829  -21.0105   21.1015 C   0  0  0  0  0  0  0  0  0  0  0  0
   -3.1842  -19.8978   20.9204 O   0  0  0  0  0  0  0  0  0  0  0  0
   -2.2955  -20.0755   19.8967 C   0  0  0  0  0  0  0  0  0  0  0  0
   -2.2364  -21.0578   19.1724 O   0  0  0  0  0  0  0  0  0  0  0  0
   -1.3548  -18.9321   19.7844 C   0  0  0  0  0  0  0  0  0  0  0  0
   -1.6483  -17.6495   20.1665 C   0  0  0  0  0  0  0  0  0  0  0  0
   -0.6897  -16.4595   20.1553 C   0  0  0  0  0  0  0  0  0  0  0  0
    0.7797  -16.3510   19.7811 C   0  0  0  0  0  0  0  0  0  0  0  0
    2.3708  -14.8904   18.5272 S   0  0  0  0  0  0  0  0  0  0  0  0
    4.1615  -13.2003   18.8380 C   0  0  0  0  0  0  0  0  0  0  0  0
    5.1862  -11.6714   17.8728 C   0  0  0  0  0  0  0  0  0  0  0  0
    7.0246  -10.8125   17.6449 C   0  0  0  0  0  0  0  0  0  0  0  0
    7.4140  -10.5134   15.6689 N   0  0  0  0  0  0  0  0  0  0  0  0
    8.5492  -10.2562   14.8585 C   0  0  0  0  0  0  0  0  0  0  0  0
    8.3122  -10.1045   13.5392 C   0  0  0  0  0  0  0  0  0  0  0  0
    6.9103  -10.1783   12.8903 C   0  0  0  0  0  0  0  0  0  0  0  0
    5.7033  -10.4150   13.3463 N   0  0  0  0  0  0  0  0  0  0  0  0
    5.5926  -10.6364   14.7086 C   0  0  0  0  0  0  0  0  0  0  0  0
    4.4631  -11.5726   15.8677 N   0  0  0  0  0  0  0  0  0  0  0  0
    0.6212  -17.8333   18.9254 C   0  0  0  0  0  0  0  0  0  0  0  0
   -0.2246  -19.0049   19.0385 C   0  0  0  0  0  0  0  0  0  0  0  0
   -5.6638  -21.6272   22.4589 H   0  0  0  0  0  0  0  0  0  0  0  0
   -4.3722  -20.6641   23.2209 H   0  0  0  0  0  0  0  0  0  0  0  0
   -5.5619  -19.8673   22.1978 H   0  0  0  0  0  0  0  0  0  0  0  0
   -4.7067  -21.1148   20.2065 H   0  0  0  0  0  0  0  0  0  0  0  0
   -3.5023  -21.9283   21.2508 H   0  0  0  0  0  0  0  0  0  0  0  0
   -2.7004  -17.4258   20.3681 H   0  0  0  0  0  0  0  0  0  0  0  0
   -1.4041  -15.6276   20.0028 H   0  0  0  0  0  0  0  0  0  0  0  0
    4.9728  -13.9487   18.8767 H   0  0  0  0  0  0  0  0  0  0  0  0
    4.1834  -12.8710   19.8880 H   0  0  0  0  0  0  0  0  0  0  0  0
    7.9883  -10.6030   18.1697 H   0  0  0  0  0  0  0  0  0  0  0  0
    9.5157  -10.2218   15.3412 H   0  0  0  0  0  0  0  0  0  0  0  0
    9.1227   -9.9391   12.8363 H   0  0  0  0  0  0  0  0  0  0  0  0
    6.9621  -10.0007   11.8000 H   0  0  0  0  0  0  0  0  0  0  0  0
    1.3724  -18.0148   18.1354 H   0  0  0  0  0  0  0  0  0  0  0  0
    0.0289  -19.8987   18.4739 H   0  0  0  0  0  0  0  0  0  0  0  0
  1  2  1  0
  2  3  1  0
  3  4  1  0
  4  5  2  0
  4  6  1  0
  6  7  2  0
  7  8  1  0
  8  9  2  0
  9 10  1  0
 10 11  1  0
 11 12  1  0
 12 13  2  0
 13 14  1  0
 14 15  1  0
 15 16  2  0
 16 17  1  0
 17 18  2  0
 18 19  1  0
 19 20  2  0
  9 21  1  0
 21 22  2  0
 22  6  1  0
 20 12  1  0
 19 14  1  0
  1 23  1  0
  1 24  1  0
  1 25  1  0
  2 26  1  0
  2 27  1  0
  7 28  1  0
  8 29  1  0
 11 30  1  0
 11 31  1  0
 13 32  1  0
 15 33  1  0
 16 34  1  0
 17 35  1  0
 21 36  1  0
 22 37  1  0
M  END
>  <Energy>  (1013) 
1298.0678256938686

>  <compound_id>  (1013) 
87589

>  <target_id>  (1013) 
1

>  <reference_id>  (1013) 
106

>  <inspiration_ids>  (1013) 
[106, 123]

>  <energy_score>  (1013) 
1205.6730176465874

>  <distance_score>  (1013) 
14.095213133561945

>  <path>  (1013) 
/opt/xchem-fragalysis-2/maxwin/BulkDock/SCRATCH/511017/C87589-P106/C87589-P106.minimised.mol

>  <scratch_subdir>  (1013) 
/opt/xchem-fragalysis-2/maxwin/BulkDock/SCRATCH/511017/C87589-P106

>  <fragmenstein_runtime>  (1013) 
21.464031457901

>  <fragmenstein_outcome>  (1013) 
too moved

>  <fragmenstein_mode>  (1013) 
expansion

>  <fragmenstein_error>  (1013) 


$$$$
C87589-P123
     RDKit          3D

 37 39  0  0  0  0  0  0  0  0999 V2000
   -7.1172  -15.0788   24.9414 C   0  0  0  0  0  0  0  0  0  0  0  0
   -6.7469  -13.7259   25.5537 C   0  0  0  0  0  0  0  0  0  0  0  0
   -6.1532  -12.8538   24.5680 O   0  0  0  0  0  0  0  0  0  0  0  0
   -5.7426  -11.6518   25.0693 C   0  0  0  0  0  0  0  0  0  0  0  0
   -5.8562  -11.2942   26.2325 O   0  0  0  0  0  0  0  0  0  0  0  0
   -5.0705  -10.8003   24.0398 C   0  0  0  0  0  0  0  0  0  0  0  0
   -4.3439   -9.6672   24.4519 C   0  0  0  0  0  0  0  0  0  0  0  0
   -3.6320   -8.8478   23.5248 C   0  0  0  0  0  0  0  0  0  0  0  0
   -3.6085   -9.1698   22.1651 C   0  0  0  0  0  0  0  0  0  0  0  0
   -2.7432   -8.1707   20.8604 S   0  0  0  0  0  0  0  0  0  0  0  0
   -1.0914   -7.5399   21.5221 C   0  0  0  0  0  0  0  0  0  0  0  0
   -0.1995   -6.6729   20.5673 C   0  0  0  0  0  0  0  0  0  0  0  0
    0.3837   -6.9683   19.3423 C   0  0  0  0  0  0  0  0  0  0  0  0
    1.2727   -5.9483   19.0555 N   0  0  0  0  0  0  0  0  0  0  0  0
    2.1593   -5.7975   17.9914 C   0  0  0  0  0  0  0  0  0  0  0  0
    2.9493   -4.7167   17.9361 C   0  0  0  0  0  0  0  0  0  0  0  0
    2.7959   -3.7663   19.0744 C   0  0  0  0  0  0  0  0  0  0  0  0
    1.9582   -3.8769   20.0612 N   0  0  0  0  0  0  0  0  0  0  0  0
    1.1771   -5.0081   20.0769 C   0  0  0  0  0  0  0  0  0  0  0  0
    0.3013   -5.4290   20.9820 N   0  0  0  0  0  0  0  0  0  0  0  0
   -4.3922  -10.2856   21.7636 C   0  0  0  0  0  0  0  0  0  0  0  0
   -5.1170  -11.0903   22.6796 C   0  0  0  0  0  0  0  0  0  0  0  0
   -6.2275  -15.5647   24.5281 H   0  0  0  0  0  0  0  0  0  0  0  0
   -7.5684  -15.7353   25.6905 H   0  0  0  0  0  0  0  0  0  0  0  0
   -7.8211  -14.9415   24.1144 H   0  0  0  0  0  0  0  0  0  0  0  0
   -6.0331  -13.8877   26.3698 H   0  0  0  0  0  0  0  0  0  0  0  0
   -7.6513  -13.2506   25.9503 H   0  0  0  0  0  0  0  0  0  0  0  0
   -4.3240   -9.3967   25.5082 H   0  0  0  0  0  0  0  0  0  0  0  0
   -3.1104   -7.9670   23.8924 H   0  0  0  0  0  0  0  0  0  0  0  0
   -0.5042   -8.4150   21.8205 H   0  0  0  0  0  0  0  0  0  0  0  0
   -1.3032   -6.9460   22.4170 H   0  0  0  0  0  0  0  0  0  0  0  0
    0.3021   -7.8402   18.7093 H   0  0  0  0  0  0  0  0  0  0  0  0
    2.1605   -6.5756   17.2397 H   0  0  0  0  0  0  0  0  0  0  0  0
    3.6345   -4.5098   17.1310 H   0  0  0  0  0  0  0  0  0  0  0  0
    3.4546   -2.8832   19.0382 H   0  0  0  0  0  0  0  0  0  0  0  0
   -4.4375  -10.5434   20.7045 H   0  0  0  0  0  0  0  0  0  0  0  0
   -5.6834  -11.9388   22.3028 H   0  0  0  0  0  0  0  0  0  0  0  0
  1  2  1  0
  2  3  1  0
  3  4  1  0
  4  5  2  0
  4  6  1  0
  6  7  2  0
  7  8  1  0
  8  9  2  0
  9 10  1  0
 10 11  1  0
 11 12  1  0
 12 13  2  0
 13 14  1  0
 14 15  1  0
 15 16  2  0
 16 17  1  0
 17 18  2  0
 18 19  1  0
 19 20  2  0
  9 21  1  0
 21 22  2  0
 22  6  1  0
 20 12  1  0
 19 14  1  0
  1 23  1  0
  1 24  1  0
  1 25  1  0
  2 26  1  0
  2 27  1  0
  7 28  1  0
  8 29  1  0
 11 30  1  0
 11 31  1  0
 13 32  1  0
 15 33  1  0
 16 34  1  0
 17 35  1  0
 21 36  1  0
 22 37  1  0
M  END
>  <Energy>  (1014) 
77.102592847871833

>  <compound_id>  (1014) 
87589

>  <target_id>  (1014) 
1

>  <reference_id>  (1014) 
123

>  <inspiration_ids>  (1014) 
[106, 123]

>  <energy_score>  (1014) 
-15.29221519942439

>  <distance_score>  (1014) 
14.495878919497907

>  <path>  (1014) 
/opt/xchem-fragalysis-2/maxwin/BulkDock/SCRATCH/511017/C87589-P123/C87589-P123.minimised.mol

>  <scratch_subdir>  (1014) 
/opt/xchem-fragalysis-2/maxwin/BulkDock/SCRATCH/511017/C87589-P123

>  <fragmenstein_runtime>  (1014) 
19.77130889892578

>  <fragmenstein_outcome>  (1014) 
too moved

>  <fragmenstein_mode>  (1014) 
expansion

>  <fragmenstein_error>  (1014) 


$$$$
C87589-P106
     RDKit          3D

 37 39  0  0  0  0  0  0  0  0999 V2000
   -4.9792  -20.7863   22.3181 C   0  0  0  0  0  0  0  0  0  0  0  0
   -4.0829  -21.0105   21.1015 C   0  0  0  0  0  0  0  0  0  0  0  0
   -3.1842  -19.8978   20.9204 O   0  0  0  0  0  0  0  0  0  0  0  0
   -2.2955  -20.0755   19.8967 C   0  0  0  0  0  0  0  0  0  0  0  0
   -2.2364  -21.0578   19.1724 O   0  0  0  0  0  0  0  0  0  0  0  0
   -1.3548  -18.9321   19.7844 C   0  0  0  0  0  0  0  0  0  0  0  0
   -1.6483  -17.6495   20.1665 C   0  0  0  0  0  0  0  0  0  0  0  0
   -0.6897  -16.4595   20.1553 C   0  0  0  0  0  0  0  0  0  0  0  0
    0.7797  -16.3510   19.7811 C   0  0  0  0  0  0  0  0  0  0  0  0
    2.3708  -14.8904   18.5272 S   0  0  0  0  0  0  0  0  0  0  0  0
    4.1615  -13.2003   18.8380 C   0  0  0  0  0  0  0  0  0  0  0  0
    5.1862  -11.6714   17.8728 C   0  0  0  0  0  0  0  0  0  0  0  0
    7.0246  -10.8125   17.6449 C   0  0  0  0  0  0  0  0  0  0  0  0
    7.4140  -10.5134   15.6689 N   0  0  0  0  0  0  0  0  0  0  0  0
    8.5492  -10.2562   14.8585 C   0  0  0  0  0  0  0  0  0  0  0  0
    8.3122  -10.1045   13.5392 C   0  0  0  0  0  0  0  0  0  0  0  0
    6.9103  -10.1783   12.8903 C   0  0  0  0  0  0  0  0  0  0  0  0
    5.7033  -10.4150   13.3463 N   0  0  0  0  0  0  0  0  0  0  0  0
    5.5926  -10.6364   14.7086 C   0  0  0  0  0  0  0  0  0  0  0  0
    4.4631  -11.5726   15.8677 N   0  0  0  0  0  0  0  0  0  0  0  0
    0.6212  -17.8333   18.9254 C   0  0  0  0  0  0  0  0  0  0  0  0
   -0.2246  -19.0049   19.0385 C   0  0  0  0  0  0  0  0  0  0  0  0
   -5.6638  -21.6272   22.4589 H   0  0  0  0  0  0  0  0  0  0  0  0
   -4.3722  -20.6641   23.2209 H   0  0  0  0  0  0  0  0  0  0  0  0
   -5.5619  -19.8673   22.1978 H   0  0  0  0  0  0  0  0  0  0  0  0
   -4.7067  -21.1148   20.2065 H   0  0  0  0  0  0  0  0  0  0  0  0
   -3.5023  -21.9283   21.2508 H   0  0  0  0  0  0  0  0  0  0  0  0
   -2.7004  -17.4258   20.3681 H   0  0  0  0  0  0  0  0  0  0  0  0
   -1.4041  -15.6276   20.0028 H   0  0  0  0  0  0  0  0  0  0  0  0
    4.9728  -13.9487   18.8767 H   0  0  0  0  0  0  0  0  0  0  0  0
    4.1834  -12.8710   19.8880 H   0  0  0  0  0  0  0  0  0  0  0  0
    7.9883  -10.6030   18.1697 H   0  0  0  0  0  0  0  0  0  0  0  0
    9.5157  -10.2218   15.3412 H   0  0  0  0  0  0  0  0  0  0  0  0
    9.1227   -9.9391   12.8363 H   0  0  0  0  0  0  0  0  0  0  0  0
    6.9621  -10.0007   11.8000 H   0  0  0  0  0  0  0  0  0  0  0  0
    1.3724  -18.0148   18.1354 H   0  0  0  0  0  0  0  0  0  0  0  0
    0.0289  -19.8987   18.4739 H   0  0  0  0  0  0  0  0  0  0  0  0
  1  2  1  0
  2  3  1  0
  3  4  1  0
  4  5  2  0
  4  6  1  0
  6  7  2  0
  7  8  1  0
  8  9  2  0
  9 10  1  0
 10 11  1  0
 11 12  1  0
 12 13  2  0
 13 14  1  0
 14 15  1  0
 15 16  2  0
 16 17  1  0
 17 18  2  0
 18 19  1  0
 19 20  2  0
  9 21  1  0
 21 22  2  0
 22  6  1  0
 20 12  1  0
 19 14  1  0
  1 23  1  0
  1 24  1  0
  1 25  1  0
  2 26  1  0
  2 27  1  0
  7 28  1  0
  8 29  1  0
 11 30  1  0
 11 31  1  0
 13 32  1  0
 15 33  1  0
 16 34  1  0
 17 35  1  0
 21 36  1  0
 22 37  1  0
M  END
>  <Energy>  (1015) 
1298.0678256938686

>  <compound_id>  (1015) 
87589

>  <target_id>  (1015) 
1

>  <reference_id>  (1015) 
106

>  <inspiration_ids>  (1015) 
[106, 123]

>  <energy_score>  (1015) 
1205.6730176465874

>  <distance_score>  (1015) 
14.095213133561945

>  <path>  (1015) 
/opt/xchem-fragalysis-2/maxwin/BulkDock/SCRATCH/511017/C87589-P106/C87589-P106.minimised.mol

>  <scratch_subdir>  (1015) 
/opt/xchem-fragalysis-2/maxwin/BulkDock/SCRATCH/511017/C87589-P106

>  <fragmenstein_runtime>  (1015) 
22.58813166618347

>  <fragmenstein_outcome>  (1015) 
too moved

>  <fragmenstein_mode>  (1015) 
expansion

>  <fragmenstein_error>  (1015) 


$$$$
C87589-P123
     RDKit          3D

 37 39  0  0  0  0  0  0  0  0999 V2000
   -7.1172  -15.0788   24.9414 C   0  0  0  0  0  0  0  0  0  0  0  0
   -6.7469  -13.7259   25.5537 C   0  0  0  0  0  0  0  0  0  0  0  0
   -6.1532  -12.8538   24.5680 O   0  0  0  0  0  0  0  0  0  0  0  0
   -5.7426  -11.6518   25.0693 C   0  0  0  0  0  0  0  0  0  0  0  0
   -5.8562  -11.2942   26.2325 O   0  0  0  0  0  0  0  0  0  0  0  0
   -5.0705  -10.8003   24.0398 C   0  0  0  0  0  0  0  0  0  0  0  0
   -4.3439   -9.6672   24.4519 C   0  0  0  0  0  0  0  0  0  0  0  0
   -3.6320   -8.8478   23.5248 C   0  0  0  0  0  0  0  0  0  0  0  0
   -3.6085   -9.1698   22.1651 C   0  0  0  0  0  0  0  0  0  0  0  0
   -2.7432   -8.1707   20.8604 S   0  0  0  0  0  0  0  0  0  0  0  0
   -1.0914   -7.5399   21.5221 C   0  0  0  0  0  0  0  0  0  0  0  0
   -0.1995   -6.6729   20.5673 C   0  0  0  0  0  0  0  0  0  0  0  0
    0.3837   -6.9683   19.3423 C   0  0  0  0  0  0  0  0  0  0  0  0
    1.2727   -5.9483   19.0555 N   0  0  0  0  0  0  0  0  0  0  0  0
    2.1593   -5.7975   17.9914 C   0  0  0  0  0  0  0  0  0  0  0  0
    2.9493   -4.7167   17.9361 C   0  0  0  0  0  0  0  0  0  0  0  0
    2.7959   -3.7663   19.0744 C   0  0  0  0  0  0  0  0  0  0  0  0
    1.9582   -3.8769   20.0612 N   0  0  0  0  0  0  0  0  0  0  0  0
    1.1771   -5.0081   20.0769 C   0  0  0  0  0  0  0  0  0  0  0  0
    0.3013   -5.4290   20.9820 N   0  0  0  0  0  0  0  0  0  0  0  0
   -4.3922  -10.2856   21.7636 C   0  0  0  0  0  0  0  0  0  0  0  0
   -5.1170  -11.0903   22.6796 C   0  0  0  0  0  0  0  0  0  0  0  0
   -6.2275  -15.5647   24.5281 H   0  0  0  0  0  0  0  0  0  0  0  0
   -7.5684  -15.7353   25.6905 H   0  0  0  0  0  0  0  0  0  0  0  0
   -7.8211  -14.9415   24.1144 H   0  0  0  0  0  0  0  0  0  0  0  0
   -6.0331  -13.8877   26.3698 H   0  0  0  0  0  0  0  0  0  0  0  0
   -7.6513  -13.2506   25.9503 H   0  0  0  0  0  0  0  0  0  0  0  0
   -4.3240   -9.3967   25.5082 H   0  0  0  0  0  0  0  0  0  0  0  0
   -3.1104   -7.9670   23.8924 H   0  0  0  0  0  0  0  0  0  0  0  0
   -0.5042   -8.4150   21.8205 H   0  0  0  0  0  0  0  0  0  0  0  0
   -1.3032   -6.9460   22.4170 H   0  0  0  0  0  0  0  0  0  0  0  0
    0.3021   -7.8402   18.7093 H   0  0  0  0  0  0  0  0  0  0  0  0
    2.1605   -6.5756   17.2397 H   0  0  0  0  0  0  0  0  0  0  0  0
    3.6345   -4.5098   17.1310 H   0  0  0  0  0  0  0  0  0  0  0  0
    3.4546   -2.8832   19.0382 H   0  0  0  0  0  0  0  0  0  0  0  0
   -4.4375  -10.5434   20.7045 H   0  0  0  0  0  0  0  0  0  0  0  0
   -5.6834  -11.9388   22.3028 H   0  0  0  0  0  0  0  0  0  0  0  0
  1  2  1  0
  2  3  1  0
  3  4  1  0
  4  5  2  0
  4  6  1  0
  6  7  2  0
  7  8  1  0
  8  9  2  0
  9 10  1  0
 10 11  1  0
 11 12  1  0
 12 13  2  0
 13 14  1  0
 14 15  1  0
 15 16  2  0
 16 17  1  0
 17 18  2  0
 18 19  1  0
 19 20  2  0
  9 21  1  0
 21 22  2  0
 22  6  1  0
 20 12  1  0
 19 14  1  0
  1 23  1  0
  1 24  1  0
  1 25  1  0
  2 26  1  0
  2 27  1  0
  7 28  1  0
  8 29  1  0
 11 30  1  0
 11 31  1  0
 13 32  1  0
 15 33  1  0
 16 34  1  0
 17 35  1  0
 21 36  1  0
 22 37  1  0
M  END
>  <Energy>  (1016) 
77.102592847871833

>  <compound_id>  (1016) 
87589

>  <target_id>  (1016) 
1

>  <reference_id>  (1016) 
123

>  <inspiration_ids>  (1016) 
[106, 123]

>  <energy_score>  (1016) 
-15.29221519942439

>  <distance_score>  (1016) 
14.495878919497907

>  <path>  (1016) 
/opt/xchem-fragalysis-2/maxwin/BulkDock/SCRATCH/511017/C87589-P123/C87589-P123.minimised.mol

>  <scratch_subdir>  (1016) 
/opt/xchem-fragalysis-2/maxwin/BulkDock/SCRATCH/511017/C87589-P123

>  <fragmenstein_runtime>  (1016) 
19.81560707092285

>  <fragmenstein_outcome>  (1016) 
too moved

>  <fragmenstein_mode>  (1016) 
expansion

>  <fragmenstein_error>  (1016) 


$$$$
C87593-P106
     RDKit          3D

 26 27  0  0  0  0  0  0  0  0999 V2000
   -6.4677  -12.3088   20.2538 C   0  0  0  0  0  0  0  0  0  0  0  0
   -6.0060  -10.9595   19.6898 C   0  0  0  0  0  0  0  0  0  0  0  0
   -4.8386  -10.4010   20.3372 O   0  0  0  0  0  0  0  0  0  0  0  0
   -3.6193  -10.7650   19.8632 C   0  0  0  0  0  0  0  0  0  0  0  0
   -3.4137  -11.6241   19.0177 O   0  0  0  0  0  0  0  0  0  0  0  0
   -2.5442   -9.9062   20.4312 C   0  0  0  0  0  0  0  0  0  0  0  0
   -2.6835   -9.0142   21.6189 C   0  0  0  0  0  0  0  0  0  0  0  0
   -1.8062   -8.1444   22.0465 N   0  0  0  0  0  0  0  0  0  0  0  0
   -0.6673   -7.9628   21.2743 C   0  0  0  0  0  0  0  0  0  0  0  0
    0.2618   -7.0013   21.2897 N   0  0  0  0  0  0  0  0  0  0  0  0
    1.1883   -7.2456   20.2426 C   0  0  0  0  0  0  0  0  0  0  0  0
    2.4624   -6.3374   19.9123 C   0  0  0  0  0  0  0  0  0  0  0  0
    3.2349   -5.9960   20.9915 F   0  0  0  0  0  0  0  0  0  0  0  0
    2.1459   -5.1523   19.3076 F   0  0  0  0  0  0  0  0  0  0  0  0
    3.3427   -6.9317   19.0373 F   0  0  0  0  0  0  0  0  0  0  0  0
    0.7387   -8.3955   19.5891 C   0  0  0  0  0  0  0  0  0  0  0  0
   -0.4200   -8.8377   20.2207 N   0  0  0  0  0  0  0  0  0  0  0  0
   -1.3420   -9.8210   19.8297 C   0  0  0  0  0  0  0  0  0  0  0  0
   -6.5129  -12.2907   21.3445 H   0  0  0  0  0  0  0  0  0  0  0  0
   -7.4582  -12.5608   19.8628 H   0  0  0  0  0  0  0  0  0  0  0  0
   -5.7775  -13.0882   19.9283 H   0  0  0  0  0  0  0  0  0  0  0  0
   -6.8074  -10.2274   19.8376 H   0  0  0  0  0  0  0  0  0  0  0  0
   -5.8415  -11.0296   18.6080 H   0  0  0  0  0  0  0  0  0  0  0  0
   -3.6181   -9.1294   22.1941 H   0  0  0  0  0  0  0  0  0  0  0  0
    1.1328   -8.9232   18.7328 H   0  0  0  0  0  0  0  0  0  0  0  0
   -1.0841  -10.3940   18.9464 H   0  0  0  0  0  0  0  0  0  0  0  0
  1  2  1  0
  2  3  1  0
  3  4  1  0
  4  5  2  0
  4  6  1  0
  6  7  1  0
  7  8  2  0
  8  9  1  0
  9 10  2  0
 10 11  1  0
 11 12  1  0
 12 13  1  0
 12 14  1  0
 12 15  1  0
 11 16  2  0
 16 17  1  0
 17 18  1  0
 18  6  2  0
 17  9  1  0
  1 19  1  0
  1 20  1  0
  1 21  1  0
  2 22  1  0
  2 23  1  0
  7 24  1  0
 16 25  1  0
 18 26  1  0
M  END
>  <Energy>  (1017) 
75.621947404853302

>  <compound_id>  (1017) 
87593

>  <target_id>  (1017) 
1

>  <reference_id>  (1017) 
106

>  <inspiration_ids>  (1017) 
[106, 123]

>  <energy_score>  (1017) 
-15.438922024021906

>  <distance_score>  (1017) 
17.97621348491819

>  <path>  (1017) 
/opt/xchem-fragalysis-2/maxwin/BulkDock/SCRATCH/511017/C87593-P106/C87593-P106.minimised.mol

>  <scratch_subdir>  (1017) 
/opt/xchem-fragalysis-2/maxwin/BulkDock/SCRATCH/511017/C87593-P106

>  <fragmenstein_runtime>  (1017) 
25.460668563842773

>  <fragmenstein_outcome>  (1017) 
too moved

>  <fragmenstein_mode>  (1017) 
expansion

>  <fragmenstein_error>  (1017) 


$$$$
C87593-P123
     RDKit          3D

 26 27  0  0  0  0  0  0  0  0999 V2000
   -0.9788  -17.2181   18.4554 C   0  0  0  0  0  0  0  0  0  0  0  0
   -0.7318  -16.2034   17.3253 C   0  0  0  0  0  0  0  0  0  0  0  0
    0.6270  -15.6943   17.3358 O   0  0  0  0  0  0  0  0  0  0  0  0
    0.7987  -14.4823   16.7270 C   0  0  0  0  0  0  0  0  0  0  0  0
   -0.0723  -13.8790   16.1132 O   0  0  0  0  0  0  0  0  0  0  0  0
    2.1534  -13.9119   16.9485 C   0  0  0  0  0  0  0  0  0  0  0  0
    3.3405  -14.6659   17.4346 C   0  0  0  0  0  0  0  0  0  0  0  0
    4.5395  -14.1904   17.6320 N   0  0  0  0  0  0  0  0  0  0  0  0
    4.7438  -12.8512   17.4018 C   0  0  0  0  0  0  0  0  0  0  0  0
    5.8468  -12.1124   17.5039 N   0  0  0  0  0  0  0  0  0  0  0  0
    5.5421  -10.7908   17.1238 C   0  0  0  0  0  0  0  0  0  0  0  0
    6.5984   -9.6162   17.1271 C   0  0  0  0  0  0  0  0  0  0  0  0
    6.2559   -8.5781   17.9560 F   0  0  0  0  0  0  0  0  0  0  0  0
    6.7470   -9.0380   15.8967 F   0  0  0  0  0  0  0  0  0  0  0  0
    7.8576   -9.9763   17.5152 F   0  0  0  0  0  0  0  0  0  0  0  0
    4.1896  -10.7840   16.7660 C   0  0  0  0  0  0  0  0  0  0  0  0
    3.6809  -12.0681   16.9673 N   0  0  0  0  0  0  0  0  0  0  0  0
    2.3989  -12.6004   16.7453 C   0  0  0  0  0  0  0  0  0  0  0  0
   -2.0089  -17.5832   18.4297 H   0  0  0  0  0  0  0  0  0  0  0  0
   -0.7823  -16.7636   19.4303 H   0  0  0  0  0  0  0  0  0  0  0  0
   -0.2949  -18.0665   18.3534 H   0  0  0  0  0  0  0  0  0  0  0  0
   -0.9009  -16.6875   16.3577 H   0  0  0  0  0  0  0  0  0  0  0  0
   -1.4461  -15.3804   17.4435 H   0  0  0  0  0  0  0  0  0  0  0  0
    3.1947  -15.7453   17.5751 H   0  0  0  0  0  0  0  0  0  0  0  0
    3.5507   -9.9889   16.4091 H   0  0  0  0  0  0  0  0  0  0  0  0
    1.6437  -11.9055   16.3967 H   0  0  0  0  0  0  0  0  0  0  0  0
  1  2  1  0
  2  3  1  0
  3  4  1  0
  4  5  2  0
  4  6  1  0
  6  7  1  0
  7  8  2  0
  8  9  1  0
  9 10  2  0
 10 11  1  0
 11 12  1  0
 12 13  1  0
 12 14  1  0
 12 15  1  0
 11 16  2  0
 16 17  1  0
 17 18  1  0
 18  6  2  0
 17  9  1  0
  1 19  1  0
  1 20  1  0
  1 21  1  0
  2 22  1  0
  2 23  1  0
  7 24  1  0
 16 25  1  0
 18 26  1  0
M  END
>  <Energy>  (1018) 
71.472925338742783

>  <compound_id>  (1018) 
87593

>  <target_id>  (1018) 
1

>  <reference_id>  (1018) 
123

>  <inspiration_ids>  (1018) 
[106, 123]

>  <energy_score>  (1018) 
-19.58794409013103

>  <distance_score>  (1018) 
19.265989396322418

>  <path>  (1018) 
/opt/xchem-fragalysis-2/maxwin/BulkDock/SCRATCH/511017/C87593-P123/C87593-P123.minimised.mol

>  <scratch_subdir>  (1018) 
/opt/xchem-fragalysis-2/maxwin/BulkDock/SCRATCH/511017/C87593-P123

>  <fragmenstein_runtime>  (1018) 
20.2200665473938

>  <fragmenstein_outcome>  (1018) 
too moved

>  <fragmenstein_mode>  (1018) 
expansion

>  <fragmenstein_error>  (1018) 


$$$$
C87598-P106
     RDKit          3D

 38 40  0  0  0  0  0  0  0  0999 V2000
   -8.6947  -23.2786   27.9326 C   0  0  0  0  0  0  0  0  0  0  0  0
   -7.1894  -22.3991   27.3521 C   0  0  0  0  0  0  0  0  0  0  0  0
   -5.5781  -22.0034   27.5410 O   0  0  0  0  0  0  0  0  0  0  0  0
   -4.5076  -20.9981   27.2919 C   0  0  0  0  0  0  0  0  0  0  0  0
   -3.3638  -21.3650   27.5883 O   0  0  0  0  0  0  0  0  0  0  0  0
   -4.6938  -19.4253   26.6008 C   0  0  0  0  0  0  0  0  0  0  0  0
   -5.7592  -18.6230   27.3118 C   0  0  0  0  0  0  0  0  0  0  0  0
   -5.0350  -17.9794   28.4802 C   0  0  0  0  0  0  0  0  0  0  0  0
   -3.5864  -17.7941   28.0336 C   0  0  0  0  0  0  0  0  0  0  0  0
   -3.4440  -18.3132   26.6743 N   0  0  0  0  0  0  0  0  0  0  0  0
   -3.3962  -17.2309   25.4037 C   0  0  0  0  0  0  0  0  0  0  0  0
   -2.5110  -15.6338   24.9736 C   0  0  0  0  0  0  0  0  0  0  0  0
   -2.1417  -14.5891   25.8301 C   0  0  0  0  0  0  0  0  0  0  0  0
   -1.1155  -13.7188   25.3149 N   0  0  0  0  0  0  0  0  0  0  0  0
    0.2719  -13.2828   26.1967 C   0  0  0  0  0  0  0  0  0  0  0  0
    1.4748  -13.0225   25.8267 C   0  0  0  0  0  0  0  0  0  0  0  0
    1.7717  -13.2013   24.3800 C   0  0  0  0  0  0  0  0  0  0  0  0
    0.8036  -14.0152   23.7078 N   0  0  0  0  0  0  0  0  0  0  0  0
   -0.6246  -14.3346   24.1850 C   0  0  0  0  0  0  0  0  0  0  0  0
   -1.5805  -15.2817   23.9411 N   0  0  0  0  0  0  0  0  0  0  0  0
   -8.7044  -24.1572   28.5968 H   0  0  0  0  0  0  0  0  0  0  0  0
   -9.2053  -23.7311   27.0674 H   0  0  0  0  0  0  0  0  0  0  0  0
   -9.4458  -22.5740   28.3068 H   0  0  0  0  0  0  0  0  0  0  0  0
   -7.0643  -22.8626   26.3833 H   0  0  0  0  0  0  0  0  0  0  0  0
   -7.5725  -21.3956   27.4089 H   0  0  0  0  0  0  0  0  0  0  0  0
   -4.8152  -19.5662   25.5320 H   0  0  0  0  0  0  0  0  0  0  0  0
   -6.6114  -19.1965   27.6558 H   0  0  0  0  0  0  0  0  0  0  0  0
   -6.1452  -17.8445   26.6443 H   0  0  0  0  0  0  0  0  0  0  0  0
   -5.5111  -17.0345   28.7548 H   0  0  0  0  0  0  0  0  0  0  0  0
   -5.0665  -18.6272   29.3624 H   0  0  0  0  0  0  0  0  0  0  0  0
   -2.9553  -18.4147   28.6832 H   0  0  0  0  0  0  0  0  0  0  0  0
   -3.2015  -16.7852   28.1732 H   0  0  0  0  0  0  0  0  0  0  0  0
   -4.3990  -17.1261   24.9754 H   0  0  0  0  0  0  0  0  0  0  0  0
   -2.8145  -17.9621   24.8820 H   0  0  0  0  0  0  0  0  0  0  0  0
   -2.1553  -14.7424   26.9091 H   0  0  0  0  0  0  0  0  0  0  0  0
    0.0739  -13.7611   27.0793 H   0  0  0  0  0  0  0  0  0  0  0  0
    1.4257  -11.9731   26.1204 H   0  0  0  0  0  0  0  0  0  0  0  0
    2.7441  -12.9669   23.9128 H   0  0  0  0  0  0  0  0  0  0  0  0
  1  2  1  0
  2  3  1  0
  3  4  1  0
  4  5  2  0
  4  6  1  0
  6  7  1  0
  7  8  1  0
  8  9  1  0
  9 10  1  0
 10 11  1  0
 11 12  1  0
 12 13  2  0
 13 14  1  0
 14 15  1  0
 15 16  2  0
 16 17  1  0
 17 18  2  0
 18 19  1  0
 19 20  2  0
 10  6  1  0
 20 12  1  0
 19 14  1  0
  1 21  1  0
  1 22  1  0
  1 23  1  0
  2 24  1  0
  2 25  1  0
  6 26  1  0
  7 27  1  0
  7 28  1  0
  8 29  1  0
  8 30  1  0
  9 31  1  0
  9 32  1  0
 11 33  1  0
 11 34  1  0
 13 35  1  0
 15 36  1  0
 16 37  1  0
 17 38  1  0
M  END
>  <Energy>  (1019) 
481.88358842687887

>  <compound_id>  (1019) 
87598

>  <target_id>  (1019) 
1

>  <reference_id>  (1019) 
106

>  <inspiration_ids>  (1019) 
[106, 123]

>  <energy_score>  (1019) 
330.90845512456985

>  <distance_score>  (1019) 
16.2124195066568

>  <path>  (1019) 
/opt/xchem-fragalysis-2/maxwin/BulkDock/SCRATCH/511017/C87598-P106/C87598-P106.minimised.mol

>  <scratch_subdir>  (1019) 
/opt/xchem-fragalysis-2/maxwin/BulkDock/SCRATCH/511017/C87598-P106

>  <fragmenstein_runtime>  (1019) 
20.439199447631836

>  <fragmenstein_outcome>  (1019) 
too moved

>  <fragmenstein_mode>  (1019) 
expansion

>  <fragmenstein_error>  (1019) 


$$$$
C87598-P123
     RDKit          3D

 38 40  0  0  0  0  0  0  0  0999 V2000
   -3.8529  -12.8456   18.8580 C   0  0  0  0  0  0  0  0  0  0  0  0
   -3.2069  -11.6650   18.1164 C   0  0  0  0  0  0  0  0  0  0  0  0
   -2.9393  -10.5999   19.0450 O   0  0  0  0  0  0  0  0  0  0  0  0
   -2.4110   -9.4472   18.5237 C   0  0  0  0  0  0  0  0  0  0  0  0
   -2.1120   -9.2973   17.3422 O   0  0  0  0  0  0  0  0  0  0  0  0
   -2.2675   -8.3213   19.5833 C   0  0  0  0  0  0  0  0  0  0  0  0
   -3.0470   -8.6423   20.8694 C   0  0  0  0  0  0  0  0  0  0  0  0
   -1.9498   -9.0785   21.7968 C   0  0  0  0  0  0  0  0  0  0  0  0
   -0.8324   -8.1074   21.4728 C   0  0  0  0  0  0  0  0  0  0  0  0
   -0.8181   -8.1027   19.9976 N   0  0  0  0  0  0  0  0  0  0  0  0
   -0.2503   -6.8462   19.4007 C   0  0  0  0  0  0  0  0  0  0  0  0
    1.2426   -6.5004   19.6290 C   0  0  0  0  0  0  0  0  0  0  0  0
    2.4061   -7.2561   19.6036 C   0  0  0  0  0  0  0  0  0  0  0  0
    3.4501   -6.3888   19.8688 N   0  0  0  0  0  0  0  0  0  0  0  0
    4.8110   -6.6332   20.0581 C   0  0  0  0  0  0  0  0  0  0  0  0
    5.6150   -5.6305   20.4438 C   0  0  0  0  0  0  0  0  0  0  0  0
    4.9322   -4.3155   20.6181 C   0  0  0  0  0  0  0  0  0  0  0  0
    3.6872   -4.0489   20.3691 N   0  0  0  0  0  0  0  0  0  0  0  0
    2.9073   -5.1136   20.0031 C   0  0  0  0  0  0  0  0  0  0  0  0
    1.6022   -5.1607   19.8089 N   0  0  0  0  0  0  0  0  0  0  0  0
   -4.7230  -12.5104   19.4297 H   0  0  0  0  0  0  0  0  0  0  0  0
   -4.1572  -13.6241   18.1532 H   0  0  0  0  0  0  0  0  0  0  0  0
   -3.1247  -13.2691   19.5522 H   0  0  0  0  0  0  0  0  0  0  0  0
   -2.2691  -11.9878   17.6515 H   0  0  0  0  0  0  0  0  0  0  0  0
   -3.8942  -11.3026   17.3440 H   0  0  0  0  0  0  0  0  0  0  0  0
   -2.7071   -7.4183   19.1400 H   0  0  0  0  0  0  0  0  0  0  0  0
   -3.8446   -9.3835   20.7818 H   0  0  0  0  0  0  0  0  0  0  0  0
   -3.5002   -7.7193   21.2540 H   0  0  0  0  0  0  0  0  0  0  0  0
   -2.2724   -9.0041   22.8268 H   0  0  0  0  0  0  0  0  0  0  0  0
   -1.6341  -10.0956   21.5506 H   0  0  0  0  0  0  0  0  0  0  0  0
   -1.0672   -7.1147   21.8769 H   0  0  0  0  0  0  0  0  0  0  0  0
    0.1275   -8.4339   21.8780 H   0  0  0  0  0  0  0  0  0  0  0  0
   -0.3700   -6.9130   18.3114 H   0  0  0  0  0  0  0  0  0  0  0  0
   -0.8456   -5.9866   19.7361 H   0  0  0  0  0  0  0  0  0  0  0  0
    2.5670   -8.3176   19.4724 H   0  0  0  0  0  0  0  0  0  0  0  0
    5.1476   -7.6524   19.9202 H   0  0  0  0  0  0  0  0  0  0  0  0
    6.6692   -5.7207   20.6523 H   0  0  0  0  0  0  0  0  0  0  0  0
    5.5641   -3.5060   21.0118 H   0  0  0  0  0  0  0  0  0  0  0  0
  1  2  1  0
  2  3  1  0
  3  4  1  0
  4  5  2  0
  4  6  1  0
  6  7  1  0
  7  8  1  0
  8  9  1  0
  9 10  1  0
 10 11  1  0
 11 12  1  0
 12 13  2  0
 13 14  1  0
 14 15  1  0
 15 16  2  0
 16 17  1  0
 17 18  2  0
 18 19  1  0
 19 20  2  0
 10  6  1  0
 20 12  1  0
 19 14  1  0
  1 21  1  0
  1 22  1  0
  1 23  1  0
  2 24  1  0
  2 25  1  0
  6 26  1  0
  7 27  1  0
  7 28  1  0
  8 29  1  0
  8 30  1  0
  9 31  1  0
  9 32  1  0
 11 33  1  0
 11 34  1  0
 13 35  1  0
 15 36  1  0
 16 37  1  0
 17 38  1  0
M  END
>  <Energy>  (1020) 
85.07948855227356

>  <compound_id>  (1020) 
87598

>  <target_id>  (1020) 
1

>  <reference_id>  (1020) 
123

>  <inspiration_ids>  (1020) 
[106, 123]

>  <energy_score>  (1020) 
-65.89564475003283

>  <distance_score>  (1020) 
16.54548582777136

>  <path>  (1020) 
/opt/xchem-fragalysis-2/maxwin/BulkDock/SCRATCH/511017/C87598-P123/C87598-P123.minimised.mol

>  <scratch_subdir>  (1020) 
/opt/xchem-fragalysis-2/maxwin/BulkDock/SCRATCH/511017/C87598-P123

>  <fragmenstein_runtime>  (1020) 
24.930342435836792

>  <fragmenstein_outcome>  (1020) 
too moved

>  <fragmenstein_mode>  (1020) 
expansion

>  <fragmenstein_error>  (1020) 


$$$$
C87605-P106
     RDKit          3D

 43 45  0  0  0  0  0  0  0  0999 V2000
   11.3731  -16.1352   26.2203 C   0  0  0  0  0  0  0  0  0  0  0  0
    9.9647  -15.5848   26.3335 C   0  0  0  0  0  0  0  0  0  0  0  0
   10.0512  -14.2297   26.7921 O   0  0  0  0  0  0  0  0  0  0  0  0
    8.8470  -13.6046   26.9520 C   0  0  0  0  0  0  0  0  0  0  0  0
    7.8041  -14.1538   26.7337 O   0  0  0  0  0  0  0  0  0  0  0  0
    9.1194  -12.2859   27.3727 N   0  0  0  0  0  0  0  0  0  0  0  0
    8.2038  -11.1925   27.7874 C   0  0  0  0  0  0  0  0  0  0  0  0
    6.9550  -10.7599   26.9977 C   0  0  0  0  0  0  0  0  0  0  0  0
    7.1888   -9.3429   26.4376 C   0  0  0  0  0  0  0  0  0  0  0  0
    8.3440   -9.1896   25.5098 N   0  0  0  0  0  0  0  0  0  0  0  0
    8.5371   -7.7233   25.2055 C   0  0  0  0  0  0  0  0  0  0  0  0
    9.5358   -7.2479   24.1332 C   0  0  0  0  0  0  0  0  0  0  0  0
   10.6167   -7.8333   23.4968 C   0  0  0  0  0  0  0  0  0  0  0  0
   11.2371   -6.8393   22.7731 N   0  0  0  0  0  0  0  0  0  0  0  0
   12.4265   -6.8715   22.0555 C   0  0  0  0  0  0  0  0  0  0  0  0
   12.8735   -5.7514   21.4740 C   0  0  0  0  0  0  0  0  0  0  0  0
   11.9999   -4.5638   21.6634 C   0  0  0  0  0  0  0  0  0  0  0  0
   10.8822   -4.5174   22.3264 N   0  0  0  0  0  0  0  0  0  0  0  0
   10.4839   -5.6820   22.9148 C   0  0  0  0  0  0  0  0  0  0  0  0
    9.4549   -5.9157   23.7081 N   0  0  0  0  0  0  0  0  0  0  0  0
    9.5465   -9.8317   26.0729 C   0  0  0  0  0  0  0  0  0  0  0  0
    9.3082  -11.3791   26.1566 C   0  0  0  0  0  0  0  0  0  0  0  0
   11.8820  -16.0942   27.1891 H   0  0  0  0  0  0  0  0  0  0  0  0
   11.3601  -17.1715   25.8715 H   0  0  0  0  0  0  0  0  0  0  0  0
   11.9667  -15.5345   25.5232 H   0  0  0  0  0  0  0  0  0  0  0  0
    9.4791  -15.6125   25.3520 H   0  0  0  0  0  0  0  0  0  0  0  0
    9.3907  -16.1835   27.0494 H   0  0  0  0  0  0  0  0  0  0  0  0
    8.7412  -10.3853   28.3062 H   0  0  0  0  0  0  0  0  0  0  0  0
    7.7436  -11.6891   28.6595 H   0  0  0  0  0  0  0  0  0  0  0  0
    6.6997  -11.4825   26.2175 H   0  0  0  0  0  0  0  0  0  0  0  0
    6.0999  -10.7036   27.6825 H   0  0  0  0  0  0  0  0  0  0  0  0
    7.3299   -8.6706   27.2962 H   0  0  0  0  0  0  0  0  0  0  0  0
    6.2900   -8.9870   25.9307 H   0  0  0  0  0  0  0  0  0  0  0  0
    7.5665   -7.3288   24.8776 H   0  0  0  0  0  0  0  0  0  0  0  0
    8.7975   -7.1985   26.1347 H   0  0  0  0  0  0  0  0  0  0  0  0
   11.0269   -8.8300   23.5287 H   0  0  0  0  0  0  0  0  0  0  0  0
   12.9564   -7.8133   22.0113 H   0  0  0  0  0  0  0  0  0  0  0  0
   13.7832   -5.6605   20.9002 H   0  0  0  0  0  0  0  0  0  0  0  0
   12.3834   -3.6594   21.1718 H   0  0  0  0  0  0  0  0  0  0  0  0
   10.3751   -9.6996   25.3747 H   0  0  0  0  0  0  0  0  0  0  0  0
    9.8833   -9.3767   27.0108 H   0  0  0  0  0  0  0  0  0  0  0  0
   10.2687  -11.7759   25.7816 H   0  0  0  0  0  0  0  0  0  0  0  0
    8.6382  -11.7150   25.3439 H   0  0  0  0  0  0  0  0  0  0  0  0
  1  2  1  0
  2  3  1  0
  3  4  1  0
  4  5  2  0
  4  6  1  0
  6  7  1  0
  7  8  1  0
  8  9  1  0
  9 10  1  0
 10 11  1  0
 11 12  1  0
 12 13  2  0
 13 14  1  0
 14 15  1  0
 15 16  2  0
 16 17  1  0
 17 18  2  0
 18 19  1  0
 19 20  2  0
 10 21  1  0
 21 22  1  0
 22  6  1  0
 20 12  1  0
 19 14  1  0
  1 23  1  0
  1 24  1  0
  1 25  1  0
  2 26  1  0
  2 27  1  0
  7 28  1  0
  7 29  1  0
  8 30  1  0
  8 31  1  0
  9 32  1  0
  9 33  1  0
 11 34  1  0
 11 35  1  0
 13 36  1  0
 15 37  1  0
 16 38  1  0
 17 39  1  0
 21 40  1  0
 21 41  1  0
 22 42  1  0
 22 43  1  0
M  END
>  <Energy>  (1021) 
106.84212206604067

>  <compound_id>  (1021) 
87605

>  <target_id>  (1021) 
1

>  <reference_id>  (1021) 
106

>  <inspiration_ids>  (1021) 
[106, 123]

>  <energy_score>  (1021) 
35.24913831638429

>  <distance_score>  (1021) 
15.978925537635739

>  <path>  (1021) 
/opt/xchem-fragalysis-2/maxwin/BulkDock/SCRATCH/511017/C87605-P106/C87605-P106.minimised.mol

>  <scratch_subdir>  (1021) 
/opt/xchem-fragalysis-2/maxwin/BulkDock/SCRATCH/511017/C87605-P106

>  <fragmenstein_runtime>  (1021) 
37.61699390411377

>  <fragmenstein_outcome>  (1021) 
too moved

>  <fragmenstein_mode>  (1021) 
expansion

>  <fragmenstein_error>  (1021) 


$$$$
C87605-P123
     RDKit          3D

 43 45  0  0  0  0  0  0  0  0999 V2000
    5.0597   -5.0740   31.3974 C   0  0  0  0  0  0  0  0  0  0  0  0
    6.4838   -5.3507   30.9549 C   0  0  0  0  0  0  0  0  0  0  0  0
    6.5124   -6.4508   30.0319 O   0  0  0  0  0  0  0  0  0  0  0  0
    6.6187   -7.6984   30.5776 C   0  0  0  0  0  0  0  0  0  0  0  0
    6.6346   -7.8935   31.7587 O   0  0  0  0  0  0  0  0  0  0  0  0
    6.6402   -8.6038   29.4983 N   0  0  0  0  0  0  0  0  0  0  0  0
    6.5768  -10.0984   29.4752 C   0  0  0  0  0  0  0  0  0  0  0  0
    6.1835  -10.7507   28.1494 C   0  0  0  0  0  0  0  0  0  0  0  0
    7.2826  -10.7890   27.0823 C   0  0  0  0  0  0  0  0  0  0  0  0
    7.6363   -9.4428   26.5662 N   0  0  0  0  0  0  0  0  0  0  0  0
    8.4797   -9.5681   25.3144 C   0  0  0  0  0  0  0  0  0  0  0  0
    9.0722   -8.3001   24.6526 C   0  0  0  0  0  0  0  0  0  0  0  0
    8.5651   -7.0327   24.4197 C   0  0  0  0  0  0  0  0  0  0  0  0
    9.4940   -6.3683   23.6461 N   0  0  0  0  0  0  0  0  0  0  0  0
    9.5022   -5.0652   23.1649 C   0  0  0  0  0  0  0  0  0  0  0  0
   10.5387   -4.6536   22.4237 C   0  0  0  0  0  0  0  0  0  0  0  0
   11.5763   -5.6734   22.1330 C   0  0  0  0  0  0  0  0  0  0  0  0
   11.5836   -6.8941   22.5742 N   0  0  0  0  0  0  0  0  0  0  0  0
   10.5347   -7.2531   23.3808 C   0  0  0  0  0  0  0  0  0  0  0  0
   10.3074   -8.3975   24.0003 N   0  0  0  0  0  0  0  0  0  0  0  0
    8.3689   -8.6433   27.5632 C   0  0  0  0  0  0  0  0  0  0  0  0
    8.0836   -8.8760   29.0703 C   0  0  0  0  0  0  0  0  0  0  0  0
    4.6343   -5.9378   31.9177 H   0  0  0  0  0  0  0  0  0  0  0  0
    4.4198   -4.8760   30.5315 H   0  0  0  0  0  0  0  0  0  0  0  0
    5.0228   -4.2097   32.0665 H   0  0  0  0  0  0  0  0  0  0  0  0
    6.8792   -4.4790   30.4233 H   0  0  0  0  0  0  0  0  0  0  0  0
    7.1437   -5.5301   31.8112 H   0  0  0  0  0  0  0  0  0  0  0  0
    5.6659  -10.2452   30.0831 H   0  0  0  0  0  0  0  0  0  0  0  0
    7.2665  -10.6738   30.1170 H   0  0  0  0  0  0  0  0  0  0  0  0
    5.8681  -11.7806   28.3545 H   0  0  0  0  0  0  0  0  0  0  0  0
    5.3173  -10.2104   27.7612 H   0  0  0  0  0  0  0  0  0  0  0  0
    6.9150  -11.4043   26.2524 H   0  0  0  0  0  0  0  0  0  0  0  0
    8.1724  -11.3002   27.4723 H   0  0  0  0  0  0  0  0  0  0  0  0
    7.8736  -10.0683   24.5507 H   0  0  0  0  0  0  0  0  0  0  0  0
    9.3262  -10.2353   25.5295 H   0  0  0  0  0  0  0  0  0  0  0  0
    7.6255   -6.5803   24.6978 H   0  0  0  0  0  0  0  0  0  0  0  0
    8.6714   -4.4298   23.4397 H   0  0  0  0  0  0  0  0  0  0  0  0
   10.6726   -3.6677   22.0312 H   0  0  0  0  0  0  0  0  0  0  0  0
   12.3980   -5.3343   21.4799 H   0  0  0  0  0  0  0  0  0  0  0  0
    8.1736   -7.5857   27.3473 H   0  0  0  0  0  0  0  0  0  0  0  0
    9.4516   -8.7919   27.4466 H   0  0  0  0  0  0  0  0  0  0  0  0
    8.6563   -8.0584   29.5441 H   0  0  0  0  0  0  0  0  0  0  0  0
    8.6580   -9.7306   29.4695 H   0  0  0  0  0  0  0  0  0  0  0  0
  1  2  1  0
  2  3  1  0
  3  4  1  0
  4  5  2  0
  4  6  1  0
  6  7  1  0
  7  8  1  0
  8  9  1  0
  9 10  1  0
 10 11  1  0
 11 12  1  0
 12 13  2  0
 13 14  1  0
 14 15  1  0
 15 16  2  0
 16 17  1  0
 17 18  2  0
 18 19  1  0
 19 20  2  0
 10 21  1  0
 21 22  1  0
 22  6  1  0
 20 12  1  0
 19 14  1  0
  1 23  1  0
  1 24  1  0
  1 25  1  0
  2 26  1  0
  2 27  1  0
  7 28  1  0
  7 29  1  0
  8 30  1  0
  8 31  1  0
  9 32  1  0
  9 33  1  0
 11 34  1  0
 11 35  1  0
 13 36  1  0
 15 37  1  0
 16 38  1  0
 17 39  1  0
 21 40  1  0
 21 41  1  0
 22 42  1  0
 22 43  1  0
M  END
>  <Energy>  (1022) 
94.818796799443902

>  <compound_id>  (1022) 
87605

>  <target_id>  (1022) 
1

>  <reference_id>  (1022) 
123

>  <inspiration_ids>  (1022) 
[106, 123]

>  <energy_score>  (1022) 
23.225813049785245

>  <distance_score>  (1022) 
16.01446198157256

>  <path>  (1022) 
/opt/xchem-fragalysis-2/maxwin/BulkDock/SCRATCH/511017/C87605-P123/C87605-P123.minimised.mol

>  <scratch_subdir>  (1022) 
/opt/xchem-fragalysis-2/maxwin/BulkDock/SCRATCH/511017/C87605-P123

>  <fragmenstein_runtime>  (1022) 
30.680509328842163

>  <fragmenstein_outcome>  (1022) 
too moved

>  <fragmenstein_mode>  (1022) 
expansion

>  <fragmenstein_error>  (1022) 


$$$$
C25634-P106
     RDKit          3D

 39 42  0  0  0  0  0  0  0  0999 V2000
    5.8265  -12.9673   20.9730 O   0  0  0  0  0  0  0  0  0  0  0  0
    4.8032  -13.3468   20.7243 C   0  0  0  0  0  0  0  0  0  0  0  0
    4.2663  -13.2038   19.1570 N   0  0  0  0  0  0  0  0  0  0  0  0
    4.8312  -12.5863   18.0302 C   0  0  0  0  0  0  0  0  0  0  0  0
    6.0713  -11.6845   18.2726 C   0  0  0  0  0  0  0  0  0  0  0  0
    6.5062  -10.6901   17.5534 N   0  0  0  0  0  0  0  0  0  0  0  0
    5.8324  -10.4806   16.3940 C   0  0  0  0  0  0  0  0  0  0  0  0
    5.9503   -9.4898   15.5324 N   0  0  0  0  0  0  0  0  0  0  0  0
    5.1254   -9.7876   14.4919 C   0  0  0  0  0  0  0  0  0  0  0  0
    4.4430  -10.9553   14.7389 C   0  0  0  0  0  0  0  0  0  0  0  0
    4.8544  -11.3778   15.9800 N   0  0  0  0  0  0  0  0  0  0  0  0
    4.3579  -12.4194   16.7864 C   0  0  0  0  0  0  0  0  0  0  0  0
    3.4694  -14.3434   21.8010 N   0  0  0  0  0  0  0  0  0  0  0  0
    3.7702  -14.6766   23.5743 C   0  0  0  0  0  0  0  0  0  0  0  0
    5.1682  -15.2923   24.8775 C   0  0  0  0  0  0  0  0  0  0  0  0
    5.4643  -16.6996   24.5902 N   0  0  0  0  0  0  0  0  0  0  0  0
    4.1834  -17.0128   24.0099 C   0  0  0  0  0  0  0  0  0  0  0  0
    3.5308  -18.1043   25.1957 C   0  0  0  0  0  0  0  0  0  0  0  0
    3.3891  -17.9879   26.6256 C   0  0  0  0  0  0  0  0  0  0  0  0
    2.7262  -19.0027   27.1940 N   0  0  0  0  0  0  0  0  0  0  0  0
    2.5250  -19.8505   26.1754 N   0  0  0  0  0  0  0  0  0  0  0  0
    3.0586  -19.3993   24.9966 C   0  0  0  0  0  0  0  0  0  0  0  0
    3.4396  -15.1530   23.5709 C   0  0  0  0  0  0  0  0  0  0  0  0
    3.4059  -13.6634   19.0891 H   0  0  0  0  0  0  0  0  0  0  0  0
    6.6409  -11.9065   19.1844 H   0  0  0  0  0  0  0  0  0  0  0  0
    5.0574   -9.1448   13.6236 H   0  0  0  0  0  0  0  0  0  0  0  0
    3.7001  -11.4901   14.1665 H   0  0  0  0  0  0  0  0  0  0  0  0
    3.5178  -12.9648   16.3875 H   0  0  0  0  0  0  0  0  0  0  0  0
    3.6172  -13.3890   23.8503 H   0  0  0  0  0  0  0  0  0  0  0  0
    5.0421  -15.0983   23.2656 H   0  0  0  0  0  0  0  0  0  0  0  0
    4.7915  -15.2116   25.9107 H   0  0  0  0  0  0  0  0  0  0  0  0
    6.1230  -14.7502   24.8669 H   0  0  0  0  0  0  0  0  0  0  0  0
    5.6685  -17.2201   25.4421 H   0  0  0  0  0  0  0  0  0  0  0  0
    4.2540  -17.7397   23.2326 H   0  0  0  0  0  0  0  0  0  0  0  0
    3.7091  -17.1729   27.2621 H   0  0  0  0  0  0  0  0  0  0  0  0
    2.0499  -20.7293   26.3562 H   0  0  0  0  0  0  0  0  0  0  0  0
    3.0021  -20.0126   24.1078 H   0  0  0  0  0  0  0  0  0  0  0  0
    3.4814  -14.4217   25.0069 H   0  0  0  0  0  0  0  0  0  0  0  0
    2.2158  -15.2552   23.4485 H   0  0  0  0  0  0  0  0  0  0  0  0
  1  2  2  0
  2  3  1  0
  3  4  1  0
  4  5  1  0
  5  6  2  0
  6  7  1  0
  7  8  2  0
  8  9  1  0
  9 10  2  0
 10 11  1  0
 11 12  1  0
  2 13  1  0
 13 14  1  0
 14 15  1  0
 15 16  1  0
 16 17  1  0
 17 18  1  0
 18 19  1  0
 19 20  2  0
 20 21  1  0
 21 22  1  0
 17 23  1  0
 12  4  2  0
 23 13  1  0
 11  7  1  0
 22 18  2  0
  3 24  1  0
  5 25  1  0
  9 26  1  0
 10 27  1  0
 12 28  1  0
 14 29  1  0
 14 30  1  0
 15 31  1  0
 15 32  1  0
 16 33  1  0
 17 34  1  0
 19 35  1  0
 21 36  1  0
 22 37  1  0
 23 38  1  0
 23 39  1  0
M  END
>  <Energy>  (1023) 
1178.616915423303

>  <compound_id>  (1023) 
25634

>  <target_id>  (1023) 
1

>  <reference_id>  (1023) 
106

>  <inspiration_ids>  (1023) 
[106, 123]

>  <energy_score>  (1023) 
1066.2600310433033

>  <distance_score>  (1023) 
15.829533186735155

>  <path>  (1023) 
/opt/xchem-fragalysis-2/maxwin/BulkDock/SCRATCH/511017/C25634-P106/C25634-P106.minimised.mol

>  <scratch_subdir>  (1023) 
/opt/xchem-fragalysis-2/maxwin/BulkDock/SCRATCH/511017/C25634-P106

>  <fragmenstein_runtime>  (1023) 
19.551400899887085

>  <fragmenstein_outcome>  (1023) 
too moved

>  <fragmenstein_mode>  (1023) 
expansion

>  <fragmenstein_error>  (1023) 


$$$$
C25634-P123
     RDKit          3D

 39 42  0  0  0  0  0  0  0  0999 V2000
   -5.7545  -10.8026   19.2393 O   0  0  0  0  0  0  0  0  0  0  0  0
   -5.7085  -10.3765   20.2933 C   0  0  0  0  0  0  0  0  0  0  0  0
   -4.6488   -9.4455   20.9362 N   0  0  0  0  0  0  0  0  0  0  0  0
   -3.4559   -8.8746   20.3861 C   0  0  0  0  0  0  0  0  0  0  0  0
   -3.1892   -8.7291   18.8891 C   0  0  0  0  0  0  0  0  0  0  0  0
   -2.1919   -8.1403   18.2768 N   0  0  0  0  0  0  0  0  0  0  0  0
   -1.1933   -7.6384   19.0630 C   0  0  0  0  0  0  0  0  0  0  0  0
   -0.0897   -6.9896   18.7193 N   0  0  0  0  0  0  0  0  0  0  0  0
    0.5972   -6.7822   19.8874 C   0  0  0  0  0  0  0  0  0  0  0  0
   -0.1226   -7.2430   20.9669 C   0  0  0  0  0  0  0  0  0  0  0  0
   -1.2836   -7.7771   20.4460 N   0  0  0  0  0  0  0  0  0  0  0  0
   -2.4136   -8.3494   21.0855 C   0  0  0  0  0  0  0  0  0  0  0  0
   -6.7010  -10.6348   21.7024 N   0  0  0  0  0  0  0  0  0  0  0  0
   -7.7005  -11.4421   22.0312 C   0  0  0  0  0  0  0  0  0  0  0  0
   -8.6587  -10.4112   23.2854 C   0  0  0  0  0  0  0  0  0  0  0  0
   -9.7434  -11.2574   23.7510 N   0  0  0  0  0  0  0  0  0  0  0  0
   -9.5445  -12.3781   22.8570 C   0  0  0  0  0  0  0  0  0  0  0  0
   -9.2980  -13.6769   23.6371 C   0  0  0  0  0  0  0  0  0  0  0  0
   -8.7389  -13.8869   24.9369 C   0  0  0  0  0  0  0  0  0  0  0  0
   -8.8457  -15.1450   25.3737 N   0  0  0  0  0  0  0  0  0  0  0  0
   -9.4321  -15.7839   24.3586 N   0  0  0  0  0  0  0  0  0  0  0  0
   -9.7475  -14.9535   23.3170 C   0  0  0  0  0  0  0  0  0  0  0  0
   -8.3501  -11.7032   21.6060 C   0  0  0  0  0  0  0  0  0  0  0  0
   -4.8597   -9.3201   21.9210 H   0  0  0  0  0  0  0  0  0  0  0  0
   -3.9799   -9.1547   18.2493 H   0  0  0  0  0  0  0  0  0  0  0  0
    1.5700   -6.3106   19.8927 H   0  0  0  0  0  0  0  0  0  0  0  0
    0.0870   -7.2632   22.0265 H   0  0  0  0  0  0  0  0  0  0  0  0
   -2.3847   -8.3483   22.1665 H   0  0  0  0  0  0  0  0  0  0  0  0
   -7.2571  -11.6616   23.1436 H   0  0  0  0  0  0  0  0  0  0  0  0
   -6.9333  -12.4421   22.1987 H   0  0  0  0  0  0  0  0  0  0  0  0
   -9.0358   -9.5306   22.7460 H   0  0  0  0  0  0  0  0  0  0  0  0
   -8.0209  -10.0616   24.1009 H   0  0  0  0  0  0  0  0  0  0  0  0
   -9.6228  -11.5071   24.7294 H   0  0  0  0  0  0  0  0  0  0  0  0
  -10.4576  -12.5256   22.2626 H   0  0  0  0  0  0  0  0  0  0  0  0
   -8.2835  -13.1586   25.5977 H   0  0  0  0  0  0  0  0  0  0  0  0
   -9.5979  -16.7802   24.4485 H   0  0  0  0  0  0  0  0  0  0  0  0
  -10.2830  -15.3330   22.4576 H   0  0  0  0  0  0  0  0  0  0  0  0
   -8.2543  -12.5608   20.7359 H   0  0  0  0  0  0  0  0  0  0  0  0
   -9.0781  -11.0121   20.9184 H   0  0  0  0  0  0  0  0  0  0  0  0
  1  2  2  0
  2  3  1  0
  3  4  1  0
  4  5  1  0
  5  6  2  0
  6  7  1  0
  7  8  2  0
  8  9  1  0
  9 10  2  0
 10 11  1  0
 11 12  1  0
  2 13  1  0
 13 14  1  0
 14 15  1  0
 15 16  1  0
 16 17  1  0
 17 18  1  0
 18 19  1  0
 19 20  2  0
 20 21  1  0
 21 22  1  0
 17 23  1  0
 12  4  2  0
 23 13  1  0
 11  7  1  0
 22 18  2  0
  3 24  1  0
  5 25  1  0
  9 26  1  0
 10 27  1  0
 12 28  1  0
 14 29  1  0
 14 30  1  0
 15 31  1  0
 15 32  1  0
 16 33  1  0
 17 34  1  0
 19 35  1  0
 21 36  1  0
 22 37  1  0
 23 38  1  0
 23 39  1  0
M  END
>  <Energy>  (1024) 
821.87501141607686

>  <compound_id>  (1024) 
25634

>  <target_id>  (1024) 
1

>  <reference_id>  (1024) 
123

>  <inspiration_ids>  (1024) 
[106, 123]

>  <energy_score>  (1024) 
709.51812703609

>  <distance_score>  (1024) 
15.731973983178042

>  <path>  (1024) 
/opt/xchem-fragalysis-2/maxwin/BulkDock/SCRATCH/511017/C25634-P123/C25634-P123.minimised.mol

>  <scratch_subdir>  (1024) 
/opt/xchem-fragalysis-2/maxwin/BulkDock/SCRATCH/511017/C25634-P123

>  <fragmenstein_runtime>  (1024) 
23.219465494155884

>  <fragmenstein_outcome>  (1024) 
too moved

>  <fragmenstein_mode>  (1024) 
expansion

>  <fragmenstein_error>  (1024) 


$$$$
C25635-P106
     RDKit          3D

 41 43  0  0  0  0  0  0  0  0999 V2000
   -4.4643  -16.5210   23.2469 C   0  0  0  0  0  0  0  0  0  0  0  0
   -3.3126  -15.5453   23.8483 C   0  0  0  0  0  0  0  0  0  0  0  0
   -1.5445  -15.4017   24.5074 C   0  0  0  0  0  0  0  0  0  0  0  0
    0.3715  -14.3800   24.3360 C   0  0  0  0  0  0  0  0  0  0  0  0
    2.0887  -14.3611   23.2280 N   0  0  0  0  0  0  0  0  0  0  0  0
    3.1262  -12.8904   22.4929 C   0  0  0  0  0  0  0  0  0  0  0  0
    2.8139  -11.7878   22.8100 O   0  0  0  0  0  0  0  0  0  0  0  0
    4.5380  -12.7917   21.0435 C   0  0  0  0  0  0  0  0  0  0  0  0
    5.8081  -11.6195   20.9963 C   0  0  0  0  0  0  0  0  0  0  0  0
    6.8852  -11.3727   20.3152 N   0  0  0  0  0  0  0  0  0  0  0  0
    6.8835  -11.9074   19.1009 C   0  0  0  0  0  0  0  0  0  0  0  0
    7.6640  -11.6318   18.0799 N   0  0  0  0  0  0  0  0  0  0  0  0
    7.0768  -12.2521   17.0178 C   0  0  0  0  0  0  0  0  0  0  0  0
    5.9374  -12.9180   17.4135 C   0  0  0  0  0  0  0  0  0  0  0  0
    5.8046  -12.6847   18.7682 N   0  0  0  0  0  0  0  0  0  0  0  0
    4.7391  -13.0249   19.6623 C   0  0  0  0  0  0  0  0  0  0  0  0
   -2.3533  -17.0272   25.3145 N   0  0  0  0  0  0  0  0  0  0  0  0
   -1.7483  -18.1181   26.1720 C   0  0  0  0  0  0  0  0  0  0  0  0
   -0.6086  -18.3062   26.5077 O   0  0  0  0  0  0  0  0  0  0  0  0
   -2.6658  -19.1854   26.5922 C   0  0  0  0  0  0  0  0  0  0  0  0
   -2.4418  -20.0691   27.6907 C   0  0  0  0  0  0  0  0  0  0  0  0
   -3.2781  -21.1090   27.7198 N   0  0  0  0  0  0  0  0  0  0  0  0
   -4.0356  -20.9117   26.6330 N   0  0  0  0  0  0  0  0  0  0  0  0
   -3.7618  -19.7414   25.9693 C   0  0  0  0  0  0  0  0  0  0  0  0
   -4.3415  -16.7911   22.1928 H   0  0  0  0  0  0  0  0  0  0  0  0
   -4.6498  -17.4226   23.8421 H   0  0  0  0  0  0  0  0  0  0  0  0
   -5.4220  -15.9842   23.2963 H   0  0  0  0  0  0  0  0  0  0  0  0
   -3.6842  -14.6363   23.5709 H   0  0  0  0  0  0  0  0  0  0  0  0
   -3.7882  -15.6841   24.7797 H   0  0  0  0  0  0  0  0  0  0  0  0
   -1.8891  -14.6960   25.3013 H   0  0  0  0  0  0  0  0  0  0  0  0
   -0.1242  -13.9190   23.4744 H   0  0  0  0  0  0  0  0  0  0  0  0
    0.7721  -13.8278   25.2364 H   0  0  0  0  0  0  0  0  0  0  0  0
    2.4081  -15.2167   22.8125 H   0  0  0  0  0  0  0  0  0  0  0  0
    5.6900  -10.9969   21.9022 H   0  0  0  0  0  0  0  0  0  0  0  0
    7.4990  -12.1878   16.0232 H   0  0  0  0  0  0  0  0  0  0  0  0
    5.2122  -13.5005   16.8665 H   0  0  0  0  0  0  0  0  0  0  0  0
    4.0088  -13.5231   19.0431 H   0  0  0  0  0  0  0  0  0  0  0  0
   -3.3562  -17.1309   25.3067 H   0  0  0  0  0  0  0  0  0  0  0  0
   -1.6539  -20.0055   28.4325 H   0  0  0  0  0  0  0  0  0  0  0  0
   -4.6956  -21.6400   26.3849 H   0  0  0  0  0  0  0  0  0  0  0  0
   -4.2861  -19.4866   25.0627 H   0  0  0  0  0  0  0  0  0  0  0  0
  1  2  1  0
  2  3  1  0
  3  4  1  0
  4  5  1  0
  5  6  1  0
  6  7  2  0
  6  8  1  0
  8  9  1  0
  9 10  2  0
 10 11  1  0
 11 12  2  0
 12 13  1  0
 13 14  2  0
 14 15  1  0
 15 16  1  0
  3 17  1  0
 17 18  1  0
 18 19  2  0
 18 20  1  0
 20 21  1  0
 21 22  2  0
 22 23  1  0
 23 24  1  0
 16  8  2  0
 24 20  2  0
 15 11  1  0
  1 25  1  0
  1 26  1  0
  1 27  1  0
  2 28  1  0
  2 29  1  0
  3 30  1  0
  4 31  1  0
  4 32  1  0
  5 33  1  0
  9 34  1  0
 13 35  1  0
 14 36  1  0
 16 37  1  0
 17 38  1  0
 21 39  1  0
 23 40  1  0
 24 41  1  0
M  END
>  <Energy>  (1025) 
732.89745373927508

>  <compound_id>  (1025) 
25635

>  <target_id>  (1025) 
1

>  <reference_id>  (1025) 
106

>  <inspiration_ids>  (1025) 
[106, 123]

>  <energy_score>  (1025) 
698.6264045919669

>  <distance_score>  (1025) 
13.215764077662028

>  <path>  (1025) 
/opt/xchem-fragalysis-2/maxwin/BulkDock/SCRATCH/511017/C25635-P106/C25635-P106.minimised.mol

>  <scratch_subdir>  (1025) 
/opt/xchem-fragalysis-2/maxwin/BulkDock/SCRATCH/511017/C25635-P106

>  <fragmenstein_runtime>  (1025) 
24.36280059814453

>  <fragmenstein_outcome>  (1025) 
too moved

>  <fragmenstein_mode>  (1025) 
expansion

>  <fragmenstein_error>  (1025) 


$$$$
C25635-P123
     RDKit          3D

 41 43  0  0  0  0  0  0  0  0999 V2000
   -2.4428  -17.4449   26.5885 C   0  0  0  0  0  0  0  0  0  0  0  0
   -1.7816  -16.4117   27.5873 C   0  0  0  0  0  0  0  0  0  0  0  0
   -0.8157  -14.6563   27.5305 C   0  0  0  0  0  0  0  0  0  0  0  0
    0.6310  -13.5091   26.3089 C   0  0  0  0  0  0  0  0  0  0  0  0
    1.5691  -11.8641   25.5629 N   0  0  0  0  0  0  0  0  0  0  0  0
    2.7406  -11.5797   23.9683 C   0  0  0  0  0  0  0  0  0  0  0  0
    2.9016  -12.4919   23.1934 O   0  0  0  0  0  0  0  0  0  0  0  0
    4.0711   -9.8564   23.3990 C   0  0  0  0  0  0  0  0  0  0  0  0
    5.5239   -9.2083   24.6654 C   0  0  0  0  0  0  0  0  0  0  0  0
    6.8297   -9.0166   24.8548 N   0  0  0  0  0  0  0  0  0  0  0  0
    6.8086   -7.6451   24.7672 C   0  0  0  0  0  0  0  0  0  0  0  0
    7.5865   -6.6733   25.1775 N   0  0  0  0  0  0  0  0  0  0  0  0
    6.6988   -5.6692   25.4206 C   0  0  0  0  0  0  0  0  0  0  0  0
    5.4114   -6.0775   25.1219 C   0  0  0  0  0  0  0  0  0  0  0  0
    5.5667   -7.1243   24.2032 N   0  0  0  0  0  0  0  0  0  0  0  0
    4.4770   -8.1347   23.2991 C   0  0  0  0  0  0  0  0  0  0  0  0
   -0.7058  -15.5323   29.1194 N   0  0  0  0  0  0  0  0  0  0  0  0
   -1.6646  -15.6185   30.2456 C   0  0  0  0  0  0  0  0  0  0  0  0
   -2.7124  -15.0624   30.4220 O   0  0  0  0  0  0  0  0  0  0  0  0
   -1.3548  -16.6253   31.2845 C   0  0  0  0  0  0  0  0  0  0  0  0
   -0.7145  -17.8854   31.1700 C   0  0  0  0  0  0  0  0  0  0  0  0
   -0.9853  -18.7211   32.1814 N   0  0  0  0  0  0  0  0  0  0  0  0
   -1.8169  -18.0118   32.9596 N   0  0  0  0  0  0  0  0  0  0  0  0
   -2.0566  -16.7603   32.4782 C   0  0  0  0  0  0  0  0  0  0  0  0
   -1.7031  -18.1856   26.2642 H   0  0  0  0  0  0  0  0  0  0  0  0
   -3.2032  -18.0186   27.1343 H   0  0  0  0  0  0  0  0  0  0  0  0
   -2.9324  -17.0238   25.7075 H   0  0  0  0  0  0  0  0  0  0  0  0
   -1.1173  -17.1629   28.0655 H   0  0  0  0  0  0  0  0  0  0  0  0
   -2.6284  -16.2135   28.2580 H   0  0  0  0  0  0  0  0  0  0  0  0
   -1.8186  -14.7021   26.9870 H   0  0  0  0  0  0  0  0  0  0  0  0
    1.5024  -14.0690   26.3927 H   0  0  0  0  0  0  0  0  0  0  0  0
   -0.2941  -13.2394   25.8552 H   0  0  0  0  0  0  0  0  0  0  0  0
    1.6069  -11.0774   26.1275 H   0  0  0  0  0  0  0  0  0  0  0  0
    5.0658   -8.6749   25.5705 H   0  0  0  0  0  0  0  0  0  0  0  0
    7.0059   -4.7653   25.9310 H   0  0  0  0  0  0  0  0  0  0  0  0
    4.4577   -5.6619   25.3912 H   0  0  0  0  0  0  0  0  0  0  0  0
    4.9300   -7.8300   22.4138 H   0  0  0  0  0  0  0  0  0  0  0  0
    0.0377  -16.2048   29.2637 H   0  0  0  0  0  0  0  0  0  0  0  0
   -0.1208  -18.2637   30.3486 H   0  0  0  0  0  0  0  0  0  0  0  0
   -2.1951  -18.4485   33.7945 H   0  0  0  0  0  0  0  0  0  0  0  0
   -2.7738  -16.1043   32.9527 H   0  0  0  0  0  0  0  0  0  0  0  0
  1  2  1  0
  2  3  1  0
  3  4  1  0
  4  5  1  0
  5  6  1  0
  6  7  2  0
  6  8  1  0
  8  9  1  0
  9 10  2  0
 10 11  1  0
 11 12  2  0
 12 13  1  0
 13 14  2  0
 14 15  1  0
 15 16  1  0
  3 17  1  0
 17 18  1  0
 18 19  2  0
 18 20  1  0
 20 21  1  0
 21 22  2  0
 22 23  1  0
 23 24  1  0
 16  8  2  0
 24 20  2  0
 15 11  1  0
  1 25  1  0
  1 26  1  0
  1 27  1  0
  2 28  1  0
  2 29  1  0
  3 30  1  0
  4 31  1  0
  4 32  1  0
  5 33  1  0
  9 34  1  0
 13 35  1  0
 14 36  1  0
 16 37  1  0
 17 38  1  0
 21 39  1  0
 23 40  1  0
 24 41  1  0
M  END
>  <Energy>  (1026) 
1257.9371946089518

>  <compound_id>  (1026) 
25635

>  <target_id>  (1026) 
1

>  <reference_id>  (1026) 
123

>  <inspiration_ids>  (1026) 
[106, 123]

>  <energy_score>  (1026) 
1223.6661454616656

>  <distance_score>  (1026) 
13.199590002870764

>  <path>  (1026) 
/opt/xchem-fragalysis-2/maxwin/BulkDock/SCRATCH/511017/C25635-P123/C25635-P123.minimised.mol

>  <scratch_subdir>  (1026) 
/opt/xchem-fragalysis-2/maxwin/BulkDock/SCRATCH/511017/C25635-P123

>  <fragmenstein_runtime>  (1026) 
28.57849097251892

>  <fragmenstein_outcome>  (1026) 
too moved

>  <fragmenstein_mode>  (1026) 
expansion

>  <fragmenstein_error>  (1026) 


$$$$
C25636-P106
     RDKit          3D

 44 46  0  0  0  0  0  0  0  0999 V2000
    1.3377  -18.0734   11.6640 C   0  0  0  0  0  0  0  0  0  0  0  0
    2.6252  -17.2551   11.6759 C   0  0  0  0  0  0  0  0  0  0  0  0
    3.7441  -18.0380   10.9777 C   0  0  0  0  0  0  0  0  0  0  0  0
    3.0244  -16.7530   13.0962 C   0  0  0  0  0  0  0  0  0  0  0  0
    3.2055  -17.9187   14.1689 C   0  0  0  0  0  0  0  0  0  0  0  0
    2.1368  -18.2426   15.1804 N   0  0  0  0  0  0  0  0  0  0  0  0
    0.9836  -19.1267   15.1006 C   0  0  0  0  0  0  0  0  0  0  0  0
    0.5491  -19.7585   14.1827 O   0  0  0  0  0  0  0  0  0  0  0  0
    0.2859  -19.3544   16.4267 C   0  0  0  0  0  0  0  0  0  0  0  0
   -1.1200  -19.5163   16.6859 C   0  0  0  0  0  0  0  0  0  0  0  0
   -1.4229  -19.7936   17.9645 N   0  0  0  0  0  0  0  0  0  0  0  0
   -0.2186  -19.8903   18.5449 N   0  0  0  0  0  0  0  0  0  0  0  0
    0.8185  -19.6477   17.6758 C   0  0  0  0  0  0  0  0  0  0  0  0
    4.1935  -15.7726   12.9201 N   0  0  0  0  0  0  0  0  0  0  0  0
    4.2797  -14.5074   12.1902 C   0  0  0  0  0  0  0  0  0  0  0  0
    3.4829  -13.9610   11.4825 O   0  0  0  0  0  0  0  0  0  0  0  0
    5.5480  -13.6760   12.4364 C   0  0  0  0  0  0  0  0  0  0  0  0
    5.7138  -12.3742   11.9572 C   0  0  0  0  0  0  0  0  0  0  0  0
    6.8989  -11.8959   12.4444 N   0  0  0  0  0  0  0  0  0  0  0  0
    7.5063  -10.6546   12.2744 C   0  0  0  0  0  0  0  0  0  0  0  0
    8.6834  -10.4145   12.8644 C   0  0  0  0  0  0  0  0  0  0  0  0
    9.2076  -11.5281   13.6972 C   0  0  0  0  0  0  0  0  0  0  0  0
    8.6539  -12.6949   13.8559 N   0  0  0  0  0  0  0  0  0  0  0  0
    7.4659  -12.9149   13.2037 C   0  0  0  0  0  0  0  0  0  0  0  0
    6.6648  -13.9853   13.2199 N   0  0  0  0  0  0  0  0  0  0  0  0
    0.9597  -18.1712   10.6400 H   0  0  0  0  0  0  0  0  0  0  0  0
    0.5556  -17.5938   12.2605 H   0  0  0  0  0  0  0  0  0  0  0  0
    1.5074  -19.0856   12.0381 H   0  0  0  0  0  0  0  0  0  0  0  0
    2.4287  -16.3685   11.0586 H   0  0  0  0  0  0  0  0  0  0  0  0
    3.4438  -18.3036    9.9579 H   0  0  0  0  0  0  0  0  0  0  0  0
    4.6612  -17.4459   10.9018 H   0  0  0  0  0  0  0  0  0  0  0  0
    3.9833  -18.9677   11.5023 H   0  0  0  0  0  0  0  0  0  0  0  0
    2.2049  -16.1164   13.4542 H   0  0  0  0  0  0  0  0  0  0  0  0
    3.4223  -18.8633   13.6619 H   0  0  0  0  0  0  0  0  0  0  0  0
    4.0858  -17.6741   14.7720 H   0  0  0  0  0  0  0  0  0  0  0  0
    2.2552  -17.9407   16.1378 H   0  0  0  0  0  0  0  0  0  0  0  0
   -1.9241  -19.4337   15.9646 H   0  0  0  0  0  0  0  0  0  0  0  0
   -0.1683  -20.1443   19.5266 H   0  0  0  0  0  0  0  0  0  0  0  0
    1.8382  -19.7649   18.0085 H   0  0  0  0  0  0  0  0  0  0  0  0
    5.0268  -15.8854   13.4864 H   0  0  0  0  0  0  0  0  0  0  0  0
    5.0628  -11.7712   11.3390 H   0  0  0  0  0  0  0  0  0  0  0  0
    7.0050   -9.9418   11.6320 H   0  0  0  0  0  0  0  0  0  0  0  0
    9.2598   -9.5210   12.7319 H   0  0  0  0  0  0  0  0  0  0  0  0
   10.1605  -11.3216   14.2127 H   0  0  0  0  0  0  0  0  0  0  0  0
  1  2  1  0
  2  3  1  0
  2  4  1  0
  4  5  1  0
  5  6  1  0
  6  7  1  0
  7  8  2  0
  7  9  1  0
  9 10  1  0
 10 11  2  0
 11 12  1  0
 12 13  1  0
  4 14  1  0
 14 15  1  0
 15 16  2  0
 15 17  1  0
 17 18  2  0
 18 19  1  0
 19 20  1  0
 20 21  2  0
 21 22  1  0
 22 23  2  0
 23 24  1  0
 24 25  2  0
 13  9  2  0
 25 17  1  0
 24 19  1  0
  1 26  1  0
  1 27  1  0
  1 28  1  0
  2 29  1  0
  3 30  1  0
  3 31  1  0
  3 32  1  0
  4 33  1  0
  5 34  1  0
  5 35  1  0
  6 36  1  0
 10 37  1  0
 12 38  1  0
 13 39  1  0
 14 40  1  0
 18 41  1  0
 20 42  1  0
 21 43  1  0
 22 44  1  0
M  END
>  <Energy>  (1027) 
66.606775345255087

>  <compound_id>  (1027) 
25636

>  <target_id>  (1027) 
1

>  <reference_id>  (1027) 
106

>  <inspiration_ids>  (1027) 
[106, 123]

>  <energy_score>  (1027) 
-22.103932774118107

>  <distance_score>  (1027) 
17.035419872306214

>  <path>  (1027) 
/opt/xchem-fragalysis-2/maxwin/BulkDock/SCRATCH/511017/C25636-P106/C25636-P106.minimised.mol

>  <scratch_subdir>  (1027) 
/opt/xchem-fragalysis-2/maxwin/BulkDock/SCRATCH/511017/C25636-P106

>  <fragmenstein_runtime>  (1027) 
43.37688851356506

>  <fragmenstein_outcome>  (1027) 
too moved

>  <fragmenstein_mode>  (1027) 
expansion

>  <fragmenstein_error>  (1027) 


$$$$
C25636-P123
     RDKit          3D

 44 46  0  0  0  0  0  0  0  0999 V2000
   -6.1141  -16.9406   23.9380 C   0  0  0  0  0  0  0  0  0  0  0  0
   -6.0623  -16.0983   25.2174 C   0  0  0  0  0  0  0  0  0  0  0  0
   -5.6548  -16.9529   26.4099 C   0  0  0  0  0  0  0  0  0  0  0  0
   -7.3575  -15.2302   25.3748 C   0  0  0  0  0  0  0  0  0  0  0  0
   -8.3499  -15.6020   26.6272 C   0  0  0  0  0  0  0  0  0  0  0  0
   -8.7704  -17.0597   27.0083 N   0  0  0  0  0  0  0  0  0  0  0  0
   -8.3718  -17.9169   28.1490 C   0  0  0  0  0  0  0  0  0  0  0  0
   -7.5662  -17.7194   29.0100 O   0  0  0  0  0  0  0  0  0  0  0  0
   -9.2217  -19.5096   28.4485 C   0  0  0  0  0  0  0  0  0  0  0  0
  -10.4506  -20.4457   29.5815 C   0  0  0  0  0  0  0  0  0  0  0  0
  -11.0645  -21.5913   29.2669 N   0  0  0  0  0  0  0  0  0  0  0  0
  -10.4467  -21.8675   28.1617 N   0  0  0  0  0  0  0  0  0  0  0  0
   -9.4529  -20.9214   27.7449 C   0  0  0  0  0  0  0  0  0  0  0  0
   -6.8516  -13.7532   25.0988 N   0  0  0  0  0  0  0  0  0  0  0  0
   -7.0380  -12.8733   23.9334 C   0  0  0  0  0  0  0  0  0  0  0  0
   -7.6896  -13.0276   22.9379 O   0  0  0  0  0  0  0  0  0  0  0  0
   -6.1784  -11.5226   23.8527 C   0  0  0  0  0  0  0  0  0  0  0  0
   -6.0625  -10.8172   22.6389 C   0  0  0  0  0  0  0  0  0  0  0  0
   -4.9585  -10.0033   22.7133 N   0  0  0  0  0  0  0  0  0  0  0  0
   -4.2167   -9.3996   21.6943 C   0  0  0  0  0  0  0  0  0  0  0  0
   -3.0925   -8.7440   21.9996 C   0  0  0  0  0  0  0  0  0  0  0  0
   -2.8900   -8.5398   23.4578 C   0  0  0  0  0  0  0  0  0  0  0  0
   -3.5187   -9.1634   24.4148 N   0  0  0  0  0  0  0  0  0  0  0  0
   -4.5420  -10.0084   24.0401 C   0  0  0  0  0  0  0  0  0  0  0  0
   -5.1936  -10.9724   24.7124 N   0  0  0  0  0  0  0  0  0  0  0  0
   -6.2224  -16.2971   23.0579 H   0  0  0  0  0  0  0  0  0  0  0  0
   -6.9539  -17.6390   23.9468 H   0  0  0  0  0  0  0  0  0  0  0  0
   -5.1926  -17.5190   23.8128 H   0  0  0  0  0  0  0  0  0  0  0  0
   -5.2146  -15.4133   25.0688 H   0  0  0  0  0  0  0  0  0  0  0  0
   -6.2611  -17.8558   26.4888 H   0  0  0  0  0  0  0  0  0  0  0  0
   -4.6176  -17.2889   26.2937 H   0  0  0  0  0  0  0  0  0  0  0  0
   -5.7055  -16.3874   27.3446 H   0  0  0  0  0  0  0  0  0  0  0  0
   -7.9878  -15.4183   24.4948 H   0  0  0  0  0  0  0  0  0  0  0  0
   -9.2917  -15.0622   26.4790 H   0  0  0  0  0  0  0  0  0  0  0  0
   -7.8842  -15.1972   27.5329 H   0  0  0  0  0  0  0  0  0  0  0  0
   -9.5383  -17.4957   26.5227 H   0  0  0  0  0  0  0  0  0  0  0  0
  -10.6445  -20.2537   30.6148 H   0  0  0  0  0  0  0  0  0  0  0  0
  -10.6006  -22.7895   27.7739 H   0  0  0  0  0  0  0  0  0  0  0  0
   -8.4308  -21.3599   27.4772 H   0  0  0  0  0  0  0  0  0  0  0  0
   -6.1628  -13.3378   25.7221 H   0  0  0  0  0  0  0  0  0  0  0  0
   -6.5777  -10.9764   21.7013 H   0  0  0  0  0  0  0  0  0  0  0  0
   -4.5363   -9.5854   20.6762 H   0  0  0  0  0  0  0  0  0  0  0  0
   -2.3898   -8.3801   21.2702 H   0  0  0  0  0  0  0  0  0  0  0  0
   -2.1052   -7.8189   23.7346 H   0  0  0  0  0  0  0  0  0  0  0  0
  1  2  1  0
  2  3  1  0
  2  4  1  0
  4  5  1  0
  5  6  1  0
  6  7  1  0
  7  8  2  0
  7  9  1  0
  9 10  1  0
 10 11  2  0
 11 12  1  0
 12 13  1  0
  4 14  1  0
 14 15  1  0
 15 16  2  0
 15 17  1  0
 17 18  2  0
 18 19  1  0
 19 20  1  0
 20 21  2  0
 21 22  1  0
 22 23  2  0
 23 24  1  0
 24 25  2  0
 13  9  2  0
 25 17  1  0
 24 19  1  0
  1 26  1  0
  1 27  1  0
  1 28  1  0
  2 29  1  0
  3 30  1  0
  3 31  1  0
  3 32  1  0
  4 33  1  0
  5 34  1  0
  5 35  1  0
  6 36  1  0
 10 37  1  0
 12 38  1  0
 13 39  1  0
 14 40  1  0
 18 41  1  0
 20 42  1  0
 21 43  1  0
 22 44  1  0
M  END
>  <Energy>  (1028) 
286.15357626916125

>  <compound_id>  (1028) 
25636

>  <target_id>  (1028) 
1

>  <reference_id>  (1028) 
123

>  <inspiration_ids>  (1028) 
[106, 123]

>  <energy_score>  (1028) 
197.44286814978614

>  <distance_score>  (1028) 
15.872705343391399

>  <path>  (1028) 
/opt/xchem-fragalysis-2/maxwin/BulkDock/SCRATCH/511017/C25636-P123/C25636-P123.minimised.mol

>  <scratch_subdir>  (1028) 
/opt/xchem-fragalysis-2/maxwin/BulkDock/SCRATCH/511017/C25636-P123

>  <fragmenstein_runtime>  (1028) 
62.5532009601593

>  <fragmenstein_outcome>  (1028) 
too moved

>  <fragmenstein_mode>  (1028) 
expansion

>  <fragmenstein_error>  (1028) 


$$$$
C25637-P106
     RDKit          3D

 44 46  0  0  0  0  0  0  0  0999 V2000
   -1.6795  -17.1077   27.6952 C   0  0  0  0  0  0  0  0  0  0  0  0
   -2.4701  -16.6010   25.9387 C   0  0  0  0  0  0  0  0  0  0  0  0
   -2.1320  -17.8586   25.7999 N   0  0  0  0  0  0  0  0  0  0  0  0
   -2.9278  -19.0669   26.7909 C   0  0  0  0  0  0  0  0  0  0  0  0
   -3.8122  -19.0212   27.5152 O   0  0  0  0  0  0  0  0  0  0  0  0
   -2.4377  -20.4287   26.5956 C   0  0  0  0  0  0  0  0  0  0  0  0
   -3.0282  -21.5507   27.2642 C   0  0  0  0  0  0  0  0  0  0  0  0
   -2.4768  -22.7165   26.9356 N   0  0  0  0  0  0  0  0  0  0  0  0
   -1.5319  -22.3534   26.0521 N   0  0  0  0  0  0  0  0  0  0  0  0
   -1.4661  -21.0017   25.8187 C   0  0  0  0  0  0  0  0  0  0  0  0
   -2.4269  -15.8686   25.2674 C   0  0  0  0  0  0  0  0  0  0  0  0
   -3.4793  -15.5371   24.0480 C   0  0  0  0  0  0  0  0  0  0  0  0
   -0.9462  -14.6818   24.4529 C   0  0  0  0  0  0  0  0  0  0  0  0
    0.5583  -14.1069   23.4348 N   0  0  0  0  0  0  0  0  0  0  0  0
    2.0916  -13.1721   23.9010 C   0  0  0  0  0  0  0  0  0  0  0  0
    2.2021  -12.9125   24.9922 O   0  0  0  0  0  0  0  0  0  0  0  0
    3.3017  -12.5814   22.5453 C   0  0  0  0  0  0  0  0  0  0  0  0
    3.5690  -13.1408   21.2092 C   0  0  0  0  0  0  0  0  0  0  0  0
    4.6901  -12.7270   20.3828 N   0  0  0  0  0  0  0  0  0  0  0  0
    5.2829  -13.0975   19.1419 C   0  0  0  0  0  0  0  0  0  0  0  0
    6.4646  -12.5984   18.7426 C   0  0  0  0  0  0  0  0  0  0  0  0
    7.1357  -11.7762   19.7592 C   0  0  0  0  0  0  0  0  0  0  0  0
    6.5812  -11.3687   20.8609 N   0  0  0  0  0  0  0  0  0  0  0  0
    5.2172  -11.6890   21.0688 C   0  0  0  0  0  0  0  0  0  0  0  0
    4.2985  -11.4126   22.2248 N   0  0  0  0  0  0  0  0  0  0  0  0
   -2.4102  -17.5352   28.4037 H   0  0  0  0  0  0  0  0  0  0  0  0
   -0.8349  -17.8117   27.5790 H   0  0  0  0  0  0  0  0  0  0  0  0
   -1.3192  -16.2638   28.3262 H   0  0  0  0  0  0  0  0  0  0  0  0
   -2.1220  -15.7070   26.9879 H   0  0  0  0  0  0  0  0  0  0  0  0
   -3.2068  -16.8643   26.9450 H   0  0  0  0  0  0  0  0  0  0  0  0
   -3.8444  -21.5292   27.9725 H   0  0  0  0  0  0  0  0  0  0  0  0
   -0.9580  -23.0812   25.6388 H   0  0  0  0  0  0  0  0  0  0  0  0
   -0.7444  -20.5937   25.1267 H   0  0  0  0  0  0  0  0  0  0  0  0
   -2.4240  -14.7835   25.8527 H   0  0  0  0  0  0  0  0  0  0  0  0
   -4.5220  -15.5346   24.2738 H   0  0  0  0  0  0  0  0  0  0  0  0
   -3.5323  -15.9468   23.0802 H   0  0  0  0  0  0  0  0  0  0  0  0
   -3.3779  -14.6286   23.6304 H   0  0  0  0  0  0  0  0  0  0  0  0
   -1.3577  -14.9237   23.4881 H   0  0  0  0  0  0  0  0  0  0  0  0
   -1.1726  -13.7828   25.0323 H   0  0  0  0  0  0  0  0  0  0  0  0
    0.6166  -14.3585   22.4335 H   0  0  0  0  0  0  0  0  0  0  0  0
    2.9538  -13.8931   20.7775 H   0  0  0  0  0  0  0  0  0  0  0  0
    4.7608  -13.8196   18.5362 H   0  0  0  0  0  0  0  0  0  0  0  0
    6.9598  -12.8511   17.8179 H   0  0  0  0  0  0  0  0  0  0  0  0
    8.1865  -11.5156   19.5529 H   0  0  0  0  0  0  0  0  0  0  0  0
  1  2  1  0
  2  3  1  0
  3  4  1  0
  4  5  2  0
  4  6  1  0
  6  7  1  0
  7  8  2  0
  8  9  1  0
  9 10  1  0
  3 11  1  0
 11 12  1  0
 11 13  1  0
 13 14  1  0
 14 15  1  0
 15 16  2  0
 15 17  1  0
 17 18  2  0
 18 19  1  0
 19 20  1  0
 20 21  2  0
 21 22  1  0
 22 23  2  0
 23 24  1  0
 24 25  2  0
 10  6  2  0
 25 17  1  0
 24 19  1  0
  1 26  1  0
  1 27  1  0
  1 28  1  0
  2 29  1  0
  2 30  1  0
  7 31  1  0
  9 32  1  0
 10 33  1  0
 11 34  1  0
 12 35  1  0
 12 36  1  0
 12 37  1  0
 13 38  1  0
 13 39  1  0
 14 40  1  0
 18 41  1  0
 20 42  1  0
 21 43  1  0
 22 44  1  0
M  END
>  <Energy>  (1029) 
1344.6863856735445

>  <compound_id>  (1029) 
25637

>  <target_id>  (1029) 
1

>  <reference_id>  (1029) 
106

>  <inspiration_ids>  (1029) 
[106, 123]

>  <energy_score>  (1029) 
1256.520538116025

>  <distance_score>  (1029) 
13.30871635281293

>  <path>  (1029) 
/opt/xchem-fragalysis-2/maxwin/BulkDock/SCRATCH/511017/C25637-P106/C25637-P106.minimised.mol

>  <scratch_subdir>  (1029) 
/opt/xchem-fragalysis-2/maxwin/BulkDock/SCRATCH/511017/C25637-P106

>  <fragmenstein_runtime>  (1029) 
45.74263572692871

>  <fragmenstein_outcome>  (1029) 
too moved

>  <fragmenstein_mode>  (1029) 
expansion

>  <fragmenstein_error>  (1029) 


$$$$
C25637-P123
     RDKit          3D

 44 46  0  0  0  0  0  0  0  0999 V2000
   -1.8993  -17.6699   25.6003 C   0  0  0  0  0  0  0  0  0  0  0  0
   -2.0789  -15.7929   24.7067 C   0  0  0  0  0  0  0  0  0  0  0  0
   -2.6549  -16.1281   25.7299 N   0  0  0  0  0  0  0  0  0  0  0  0
   -2.2546  -16.2341   27.5523 C   0  0  0  0  0  0  0  0  0  0  0  0
   -1.3420  -15.8977   28.1672 O   0  0  0  0  0  0  0  0  0  0  0  0
   -3.2636  -17.0247   28.4783 C   0  0  0  0  0  0  0  0  0  0  0  0
   -3.4465  -16.7980   29.8856 C   0  0  0  0  0  0  0  0  0  0  0  0
   -4.2574  -17.6695   30.4968 N   0  0  0  0  0  0  0  0  0  0  0  0
   -4.5415  -18.5538   29.5335 N   0  0  0  0  0  0  0  0  0  0  0  0
   -3.9075  -18.2630   28.3480 C   0  0  0  0  0  0  0  0  0  0  0  0
   -1.3740  -15.0693   24.4050 C   0  0  0  0  0  0  0  0  0  0  0  0
   -1.8563  -13.6968   25.4195 C   0  0  0  0  0  0  0  0  0  0  0  0
    0.6063  -14.2405   24.0657 C   0  0  0  0  0  0  0  0  0  0  0  0
    2.4207  -13.5642   23.3602 N   0  0  0  0  0  0  0  0  0  0  0  0
    3.2530  -13.6837   21.5798 C   0  0  0  0  0  0  0  0  0  0  0  0
    2.6400  -14.3457   20.7751 O   0  0  0  0  0  0  0  0  0  0  0  0
    4.7207  -12.8807   20.7109 C   0  0  0  0  0  0  0  0  0  0  0  0
    5.9705  -12.1584   20.7324 C   0  0  0  0  0  0  0  0  0  0  0  0
    6.5921  -12.0382   19.4933 N   0  0  0  0  0  0  0  0  0  0  0  0
    7.7781  -11.3628   19.1709 C   0  0  0  0  0  0  0  0  0  0  0  0
    8.0939  -11.1684   17.8848 C   0  0  0  0  0  0  0  0  0  0  0  0
    7.1002  -11.7239   16.9286 C   0  0  0  0  0  0  0  0  0  0  0  0
    6.0269  -12.3956   17.2236 N   0  0  0  0  0  0  0  0  0  0  0  0
    5.7502  -12.5680   18.5584 C   0  0  0  0  0  0  0  0  0  0  0  0
    4.7001  -13.0823   19.1870 N   0  0  0  0  0  0  0  0  0  0  0  0
   -2.4768  -17.9568   26.4787 H   0  0  0  0  0  0  0  0  0  0  0  0
   -0.9016  -17.8073   26.0975 H   0  0  0  0  0  0  0  0  0  0  0  0
   -1.9447  -18.7045   25.2778 H   0  0  0  0  0  0  0  0  0  0  0  0
   -3.1518  -15.4658   24.7126 H   0  0  0  0  0  0  0  0  0  0  0  0
   -2.8923  -15.9215   23.8857 H   0  0  0  0  0  0  0  0  0  0  0  0
   -3.0075  -15.9974   30.4695 H   0  0  0  0  0  0  0  0  0  0  0  0
   -5.1438  -19.3461   29.7616 H   0  0  0  0  0  0  0  0  0  0  0  0
   -3.9838  -18.9702   27.5377 H   0  0  0  0  0  0  0  0  0  0  0  0
   -1.5576  -14.9383   23.2625 H   0  0  0  0  0  0  0  0  0  0  0  0
   -2.4424  -14.1968   26.1713 H   0  0  0  0  0  0  0  0  0  0  0  0
   -0.9415  -13.2635   25.6878 H   0  0  0  0  0  0  0  0  0  0  0  0
   -2.5553  -12.8528   25.2518 H   0  0  0  0  0  0  0  0  0  0  0  0
    1.2228  -14.8885   23.4357 H   0  0  0  0  0  0  0  0  0  0  0  0
   -0.0024  -13.8984   23.1933 H   0  0  0  0  0  0  0  0  0  0  0  0
    2.9662  -12.9248   23.9216 H   0  0  0  0  0  0  0  0  0  0  0  0
    6.5646  -11.6533   21.4861 H   0  0  0  0  0  0  0  0  0  0  0  0
    8.3827  -10.9922   19.9881 H   0  0  0  0  0  0  0  0  0  0  0  0
    8.9734  -10.6702   17.5138 H   0  0  0  0  0  0  0  0  0  0  0  0
    7.3350  -11.5541   15.8646 H   0  0  0  0  0  0  0  0  0  0  0  0
  1  2  1  0
  2  3  1  0
  3  4  1  0
  4  5  2  0
  4  6  1  0
  6  7  1  0
  7  8  2  0
  8  9  1  0
  9 10  1  0
  3 11  1  0
 11 12  1  0
 11 13  1  0
 13 14  1  0
 14 15  1  0
 15 16  2  0
 15 17  1  0
 17 18  2  0
 18 19  1  0
 19 20  1  0
 20 21  2  0
 21 22  1  0
 22 23  2  0
 23 24  1  0
 24 25  2  0
 10  6  2  0
 25 17  1  0
 24 19  1  0
  1 26  1  0
  1 27  1  0
  1 28  1  0
  2 29  1  0
  2 30  1  0
  7 31  1  0
  9 32  1  0
 10 33  1  0
 11 34  1  0
 12 35  1  0
 12 36  1  0
 12 37  1  0
 13 38  1  0
 13 39  1  0
 14 40  1  0
 18 41  1  0
 20 42  1  0
 21 43  1  0
 22 44  1  0
M  END
>  <Energy>  (1030) 
1684.8861180310037

>  <compound_id>  (1030) 
25637

>  <target_id>  (1030) 
1

>  <reference_id>  (1030) 
123

>  <inspiration_ids>  (1030) 
[106, 123]

>  <energy_score>  (1030) 
1596.7202704734877

>  <distance_score>  (1030) 
12.714877599756516

>  <path>  (1030) 
/opt/xchem-fragalysis-2/maxwin/BulkDock/SCRATCH/511017/C25637-P123/C25637-P123.minimised.mol

>  <scratch_subdir>  (1030) 
/opt/xchem-fragalysis-2/maxwin/BulkDock/SCRATCH/511017/C25637-P123

>  <fragmenstein_runtime>  (1030) 
28.235293865203857

>  <fragmenstein_outcome>  (1030) 
too moved

>  <fragmenstein_mode>  (1030) 
expansion

>  <fragmenstein_error>  (1030) 


$$$$
C25638-P106
     RDKit          3D

 41 43  0  0  0  0  0  0  0  0999 V2000
    1.1879  -14.4365   29.2078 C   0  0  0  0  0  0  0  0  0  0  0  0
    0.0769  -13.5610   28.6419 C   0  0  0  0  0  0  0  0  0  0  0  0
    0.4062  -12.8204   27.2678 C   0  0  0  0  0  0  0  0  0  0  0  0
    1.8540  -12.9562   26.5994 C   0  0  0  0  0  0  0  0  0  0  0  0
    2.1676  -12.6017   25.1402 N   0  0  0  0  0  0  0  0  0  0  0  0
    3.1298  -13.2430   24.1376 C   0  0  0  0  0  0  0  0  0  0  0  0
    3.8036  -14.2318   24.2413 O   0  0  0  0  0  0  0  0  0  0  0  0
    3.4475  -12.3357   22.5703 C   0  0  0  0  0  0  0  0  0  0  0  0
    4.3551  -11.2343   22.3214 C   0  0  0  0  0  0  0  0  0  0  0  0
    5.4482  -11.6969   21.0736 N   0  0  0  0  0  0  0  0  0  0  0  0
    6.8889  -11.5619   20.9726 C   0  0  0  0  0  0  0  0  0  0  0  0
    7.5000  -12.0375   19.8806 C   0  0  0  0  0  0  0  0  0  0  0  0
    6.5664  -12.7111   18.9336 C   0  0  0  0  0  0  0  0  0  0  0  0
    5.3268  -13.0344   19.1598 N   0  0  0  0  0  0  0  0  0  0  0  0
    4.7972  -12.6671   20.3821 C   0  0  0  0  0  0  0  0  0  0  0  0
    3.7460  -13.0447   21.1634 N   0  0  0  0  0  0  0  0  0  0  0  0
   -1.1622  -14.3792   28.7293 N   0  0  0  0  0  0  0  0  0  0  0  0
   -2.5325  -13.9973   28.9224 C   0  0  0  0  0  0  0  0  0  0  0  0
   -3.0389  -12.9162   28.9830 O   0  0  0  0  0  0  0  0  0  0  0  0
   -3.4285  -15.1800   29.1839 C   0  0  0  0  0  0  0  0  0  0  0  0
   -4.8501  -15.1412   29.3352 C   0  0  0  0  0  0  0  0  0  0  0  0
   -5.4054  -16.3251   29.6106 N   0  0  0  0  0  0  0  0  0  0  0  0
   -4.3535  -17.1498   29.7020 N   0  0  0  0  0  0  0  0  0  0  0  0
   -3.1578  -16.5247   29.4212 C   0  0  0  0  0  0  0  0  0  0  0  0
    1.4447  -15.2824   28.5695 H   0  0  0  0  0  0  0  0  0  0  0  0
    2.0982  -13.8456   29.3568 H   0  0  0  0  0  0  0  0  0  0  0  0
    0.9057  -14.8435   30.1862 H   0  0  0  0  0  0  0  0  0  0  0  0
   -0.0975  -12.7526   29.3650 H   0  0  0  0  0  0  0  0  0  0  0  0
   -0.4188  -13.0123   26.5880 H   0  0  0  0  0  0  0  0  0  0  0  0
    0.2919  -11.7475   27.4808 H   0  0  0  0  0  0  0  0  0  0  0  0
    2.3918  -13.8359   26.9084 H   0  0  0  0  0  0  0  0  0  0  0  0
    2.4294  -12.1769   27.1211 H   0  0  0  0  0  0  0  0  0  0  0  0
    1.7021  -11.8301   24.7031 H   0  0  0  0  0  0  0  0  0  0  0  0
    4.9629  -10.5503   22.8708 H   0  0  0  0  0  0  0  0  0  0  0  0
    7.3984  -11.0447   21.7747 H   0  0  0  0  0  0  0  0  0  0  0  0
    8.5556  -11.9779   19.6657 H   0  0  0  0  0  0  0  0  0  0  0  0
    7.0073  -12.9813   17.9598 H   0  0  0  0  0  0  0  0  0  0  0  0
   -1.1095  -15.3843   28.6485 H   0  0  0  0  0  0  0  0  0  0  0  0
   -5.4899  -14.2710   29.2491 H   0  0  0  0  0  0  0  0  0  0  0  0
   -4.5254  -18.1185   29.9641 H   0  0  0  0  0  0  0  0  0  0  0  0
   -2.2392  -17.0901   29.4666 H   0  0  0  0  0  0  0  0  0  0  0  0
  1  2  1  0
  2  3  1  0
  3  4  1  0
  4  5  1  0
  5  6  1  0
  6  7  2  0
  6  8  1  0
  8  9  2  0
  9 10  1  0
 10 11  1  0
 11 12  2  0
 12 13  1  0
 13 14  2  0
 14 15  1  0
 15 16  2  0
  2 17  1  0
 17 18  1  0
 18 19  2  0
 18 20  1  0
 20 21  1  0
 21 22  2  0
 22 23  1  0
 23 24  1  0
 16  8  1  0
 24 20  2  0
 15 10  1  0
  1 25  1  0
  1 26  1  0
  1 27  1  0
  2 28  1  0
  3 29  1  0
  3 30  1  0
  4 31  1  0
  4 32  1  0
  5 33  1  0
  9 34  1  0
 11 35  1  0
 12 36  1  0
 13 37  1  0
 17 38  1  0
 21 39  1  0
 23 40  1  0
 24 41  1  0
M  END
>  <Energy>  (1031) 
187.69253011837327

>  <compound_id>  (1031) 
25638

>  <target_id>  (1031) 
1

>  <reference_id>  (1031) 
106

>  <inspiration_ids>  (1031) 
[106, 123]

>  <energy_score>  (1031) 
126.77317860246342

>  <distance_score>  (1031) 
13.997306340347617

>  <path>  (1031) 
/opt/xchem-fragalysis-2/maxwin/BulkDock/SCRATCH/511017/C25638-P106/C25638-P106.minimised.mol

>  <scratch_subdir>  (1031) 
/opt/xchem-fragalysis-2/maxwin/BulkDock/SCRATCH/511017/C25638-P106

>  <fragmenstein_runtime>  (1031) 
37.0160768032074

>  <fragmenstein_outcome>  (1031) 
too moved

>  <fragmenstein_mode>  (1031) 
expansion

>  <fragmenstein_error>  (1031) 


$$$$
C25638-P123
     RDKit          3D

 41 43  0  0  0  0  0  0  0  0999 V2000
    2.7122  -21.0684   16.5156 C   0  0  0  0  0  0  0  0  0  0  0  0
    1.7628  -20.2886   15.6098 C   0  0  0  0  0  0  0  0  0  0  0  0
    2.2458  -18.7861   15.3376 C   0  0  0  0  0  0  0  0  0  0  0  0
    3.5978  -18.3982   14.5880 C   0  0  0  0  0  0  0  0  0  0  0  0
    4.2062  -16.9900   14.7093 N   0  0  0  0  0  0  0  0  0  0  0  0
    5.5779  -16.5576   15.0183 C   0  0  0  0  0  0  0  0  0  0  0  0
    6.5450  -17.1984   15.3308 O   0  0  0  0  0  0  0  0  0  0  0  0
    5.8853  -15.0175   15.0400 C   0  0  0  0  0  0  0  0  0  0  0  0
    6.9569  -14.4841   15.7702 C   0  0  0  0  0  0  0  0  0  0  0  0
    7.0428  -13.1411   15.4999 N   0  0  0  0  0  0  0  0  0  0  0  0
    7.9545  -12.1855   15.9596 C   0  0  0  0  0  0  0  0  0  0  0  0
    7.8585  -10.9153   15.5410 C   0  0  0  0  0  0  0  0  0  0  0  0
    6.7264  -10.6650   14.6057 C   0  0  0  0  0  0  0  0  0  0  0  0
    5.8717  -11.5431   14.1626 N   0  0  0  0  0  0  0  0  0  0  0  0
    6.0208  -12.8415   14.6039 C   0  0  0  0  0  0  0  0  0  0  0  0
    5.3317  -13.9525   14.3057 N   0  0  0  0  0  0  0  0  0  0  0  0
    0.4179  -20.4741   16.2706 N   0  0  0  0  0  0  0  0  0  0  0  0
   -0.5199  -21.5874   16.2287 C   0  0  0  0  0  0  0  0  0  0  0  0
   -0.4966  -22.6021   15.5940 O   0  0  0  0  0  0  0  0  0  0  0  0
   -1.6535  -21.4876   17.2240 C   0  0  0  0  0  0  0  0  0  0  0  0
   -2.1640  -22.5651   18.0311 C   0  0  0  0  0  0  0  0  0  0  0  0
   -3.1133  -22.2031   18.9049 N   0  0  0  0  0  0  0  0  0  0  0  0
   -3.2877  -20.9017   18.6321 N   0  0  0  0  0  0  0  0  0  0  0  0
   -2.4437  -20.4303   17.6515 C   0  0  0  0  0  0  0  0  0  0  0  0
    2.3882  -22.1082   16.6366 H   0  0  0  0  0  0  0  0  0  0  0  0
    3.7203  -21.0888   16.0905 H   0  0  0  0  0  0  0  0  0  0  0  0
    2.7720  -20.6233   17.5097 H   0  0  0  0  0  0  0  0  0  0  0  0
    1.7005  -20.8080   14.6462 H   0  0  0  0  0  0  0  0  0  0  0  0
    2.1694  -18.2180   16.2633 H   0  0  0  0  0  0  0  0  0  0  0  0
    1.4808  -18.4463   14.6558 H   0  0  0  0  0  0  0  0  0  0  0  0
    3.4459  -18.5451   13.5126 H   0  0  0  0  0  0  0  0  0  0  0  0
    4.3868  -19.0920   14.8903 H   0  0  0  0  0  0  0  0  0  0  0  0
    3.6220  -16.1656   14.5642 H   0  0  0  0  0  0  0  0  0  0  0  0
    7.6589  -14.9727   16.4304 H   0  0  0  0  0  0  0  0  0  0  0  0
    8.7208  -12.5256   16.6441 H   0  0  0  0  0  0  0  0  0  0  0  0
    8.5213  -10.1144   15.8300 H   0  0  0  0  0  0  0  0  0  0  0  0
    6.6261   -9.6196   14.2686 H   0  0  0  0  0  0  0  0  0  0  0  0
    0.1226  -19.8198   16.9858 H   0  0  0  0  0  0  0  0  0  0  0  0
   -1.8316  -23.5959   18.0139 H   0  0  0  0  0  0  0  0  0  0  0  0
   -4.0003  -20.3940   19.1479 H   0  0  0  0  0  0  0  0  0  0  0  0
   -2.4826  -19.3968   17.3432 H   0  0  0  0  0  0  0  0  0  0  0  0
  1  2  1  0
  2  3  1  0
  3  4  1  0
  4  5  1  0
  5  6  1  0
  6  7  2  0
  6  8  1  0
  8  9  2  0
  9 10  1  0
 10 11  1  0
 11 12  2  0
 12 13  1  0
 13 14  2  0
 14 15  1  0
 15 16  2  0
  2 17  1  0
 17 18  1  0
 18 19  2  0
 18 20  1  0
 20 21  1  0
 21 22  2  0
 22 23  1  0
 23 24  1  0
 16  8  1  0
 24 20  2  0
 15 10  1  0
  1 25  1  0
  1 26  1  0
  1 27  1  0
  2 28  1  0
  3 29  1  0
  3 30  1  0
  4 31  1  0
  4 32  1  0
  5 33  1  0
  9 34  1  0
 11 35  1  0
 12 36  1  0
 13 37  1  0
 17 38  1  0
 21 39  1  0
 23 40  1  0
 24 41  1  0
M  END
>  <Energy>  (1032) 
63.489490831957966

>  <compound_id>  (1032) 
25638

>  <target_id>  (1032) 
1

>  <reference_id>  (1032) 
123

>  <inspiration_ids>  (1032) 
[106, 123]

>  <energy_score>  (1032) 
2.57013931605195

>  <distance_score>  (1032) 
15.808900537018856

>  <path>  (1032) 
/opt/xchem-fragalysis-2/maxwin/BulkDock/SCRATCH/511017/C25638-P123/C25638-P123.minimised.mol

>  <scratch_subdir>  (1032) 
/opt/xchem-fragalysis-2/maxwin/BulkDock/SCRATCH/511017/C25638-P123

>  <fragmenstein_runtime>  (1032) 
43.53567600250244

>  <fragmenstein_outcome>  (1032) 
too moved

>  <fragmenstein_mode>  (1032) 
expansion

>  <fragmenstein_error>  (1032) 


$$$$
C25639-P106
     RDKit          3D

 38 40  0  0  0  0  0  0  0  0999 V2000
   -0.3017  -12.0231   10.2591 C   0  0  0  0  0  0  0  0  0  0  0  0
    0.8928  -12.3729   11.0460 N   0  0  0  0  0  0  0  0  0  0  0  0
   -0.0820  -13.5245   11.5907 C   0  0  0  0  0  0  0  0  0  0  0  0
   -1.4789  -14.2426   11.2779 C   0  0  0  0  0  0  0  0  0  0  0  0
   -2.0545  -15.0557   12.4363 N   0  0  0  0  0  0  0  0  0  0  0  0
   -3.4289  -15.2014   12.9139 C   0  0  0  0  0  0  0  0  0  0  0  0
   -4.4360  -14.6571   12.5641 O   0  0  0  0  0  0  0  0  0  0  0  0
   -3.6379  -16.1540   14.0775 C   0  0  0  0  0  0  0  0  0  0  0  0
   -4.6114  -16.0169   15.1391 C   0  0  0  0  0  0  0  0  0  0  0  0
   -4.6233  -17.0231   16.0251 N   0  0  0  0  0  0  0  0  0  0  0  0
   -3.7141  -17.8688   15.5199 N   0  0  0  0  0  0  0  0  0  0  0  0
   -3.1138  -17.4050   14.3669 C   0  0  0  0  0  0  0  0  0  0  0  0
    2.0597  -12.4481   10.1775 C   0  0  0  0  0  0  0  0  0  0  0  0
    2.5274  -13.3832    9.5779 O   0  0  0  0  0  0  0  0  0  0  0  0
    2.8913  -11.1423   10.1013 C   0  0  0  0  0  0  0  0  0  0  0  0
    4.2754  -11.1707   10.3183 C   0  0  0  0  0  0  0  0  0  0  0  0
    4.6754   -9.8863   10.5765 N   0  0  0  0  0  0  0  0  0  0  0  0
    5.8857   -9.4117   11.0797 C   0  0  0  0  0  0  0  0  0  0  0  0
    6.0401   -8.0996   11.2949 C   0  0  0  0  0  0  0  0  0  0  0  0
    4.8700   -7.2672   10.8952 C   0  0  0  0  0  0  0  0  0  0  0  0
    3.7404   -7.6920   10.4100 N   0  0  0  0  0  0  0  0  0  0  0  0
    3.5956   -9.0567   10.2919 C   0  0  0  0  0  0  0  0  0  0  0  0
    2.5122   -9.7957   10.0275 N   0  0  0  0  0  0  0  0  0  0  0  0
   -0.0239  -11.1344    9.6724 H   0  0  0  0  0  0  0  0  0  0  0  0
   -1.1416  -11.6616   10.8618 H   0  0  0  0  0  0  0  0  0  0  0  0
   -0.5514  -12.7599    9.4817 H   0  0  0  0  0  0  0  0  0  0  0  0
   -0.1503  -13.2349   12.6487 H   0  0  0  0  0  0  0  0  0  0  0  0
    0.6140  -14.3780   11.6044 H   0  0  0  0  0  0  0  0  0  0  0  0
   -2.2614  -13.5308   11.0021 H   0  0  0  0  0  0  0  0  0  0  0  0
   -1.3513  -14.9415   10.4447 H   0  0  0  0  0  0  0  0  0  0  0  0
   -1.4661  -15.7369   12.9060 H   0  0  0  0  0  0  0  0  0  0  0  0
   -5.3091  -15.2005   15.2739 H   0  0  0  0  0  0  0  0  0  0  0  0
   -3.5482  -18.7472   16.0007 H   0  0  0  0  0  0  0  0  0  0  0  0
   -2.3804  -18.0126   13.8568 H   0  0  0  0  0  0  0  0  0  0  0  0
    4.9398  -12.0114   10.4541 H   0  0  0  0  0  0  0  0  0  0  0  0
    6.6490  -10.1453   11.3042 H   0  0  0  0  0  0  0  0  0  0  0  0
    6.9312   -7.6583   11.7036 H   0  0  0  0  0  0  0  0  0  0  0  0
    4.9985   -6.1811   11.0181 H   0  0  0  0  0  0  0  0  0  0  0  0
  1  2  1  0
  2  3  1  0
  3  4  1  0
  4  5  1  0
  5  6  1  0
  6  7  2  0
  6  8  1  0
  8  9  1  0
  9 10  2  0
 10 11  1  0
 11 12  1  0
  2 13  1  0
 13 14  2  0
 13 15  1  0
 15 16  2  0
 16 17  1  0
 17 18  1  0
 18 19  2  0
 19 20  1  0
 20 21  2  0
 21 22  1  0
 22 23  2  0
 12  8  2  0
 23 15  1  0
 22 17  1  0
  1 24  1  0
  1 25  1  0
  1 26  1  0
  3 27  1  0
  3 28  1  0
  4 29  1  0
  4 30  1  0
  5 31  1  0
  9 32  1  0
 11 33  1  0
 12 34  1  0
 16 35  1  0
 18 36  1  0
 19 37  1  0
 20 38  1  0
M  END
>  <Energy>  (1033) 
161.40866624658923

>  <compound_id>  (1033) 
25639

>  <target_id>  (1033) 
1

>  <reference_id>  (1033) 
106

>  <inspiration_ids>  (1033) 
[106, 123]

>  <energy_score>  (1033) 
81.36065158859935

>  <distance_score>  (1033) 
17.552009660904336

>  <path>  (1033) 
/opt/xchem-fragalysis-2/maxwin/BulkDock/SCRATCH/511017/C25639-P106/C25639-P106.minimised.mol

>  <scratch_subdir>  (1033) 
/opt/xchem-fragalysis-2/maxwin/BulkDock/SCRATCH/511017/C25639-P106

>  <fragmenstein_runtime>  (1033) 
38.22597694396973

>  <fragmenstein_outcome>  (1033) 
too moved

>  <fragmenstein_mode>  (1033) 
expansion

>  <fragmenstein_error>  (1033) 


$$$$
C25639-P123
     RDKit          3D

 38 40  0  0  0  0  0  0  0  0999 V2000
   -1.3643   -3.7129   24.8683 C   0  0  0  0  0  0  0  0  0  0  0  0
   -0.1417   -4.5122   24.5870 N   0  0  0  0  0  0  0  0  0  0  0  0
   -0.8912   -5.5725   25.5501 C   0  0  0  0  0  0  0  0  0  0  0  0
   -2.3056   -6.2488   25.2710 C   0  0  0  0  0  0  0  0  0  0  0  0
   -2.6820   -7.5656   25.8503 N   0  0  0  0  0  0  0  0  0  0  0  0
   -2.6807   -8.0355   27.2155 C   0  0  0  0  0  0  0  0  0  0  0  0
   -2.3001   -7.5097   28.2188 O   0  0  0  0  0  0  0  0  0  0  0  0
   -3.3443   -9.3922   27.3913 C   0  0  0  0  0  0  0  0  0  0  0  0
   -4.2112  -10.1889   26.5792 C   0  0  0  0  0  0  0  0  0  0  0  0
   -4.5966  -11.3423   27.1465 N   0  0  0  0  0  0  0  0  0  0  0  0
   -4.0114  -11.3099   28.3511 N   0  0  0  0  0  0  0  0  0  0  0  0
   -3.2634  -10.1808   28.5408 C   0  0  0  0  0  0  0  0  0  0  0  0
    1.0461   -3.7013   24.8130 C   0  0  0  0  0  0  0  0  0  0  0  0
    1.7101   -3.5538   25.8048 O   0  0  0  0  0  0  0  0  0  0  0  0
    1.6297   -2.9859   23.5696 C   0  0  0  0  0  0  0  0  0  0  0  0
    1.5014   -3.2440   22.2085 C   0  0  0  0  0  0  0  0  0  0  0  0
    2.5490   -2.5809   21.5746 N   0  0  0  0  0  0  0  0  0  0  0  0
    2.9847   -2.6228   20.2506 C   0  0  0  0  0  0  0  0  0  0  0  0
    4.0650   -1.9184   19.8806 C   0  0  0  0  0  0  0  0  0  0  0  0
    4.7138   -1.1398   20.9670 C   0  0  0  0  0  0  0  0  0  0  0  0
    4.3200   -1.0711   22.2013 N   0  0  0  0  0  0  0  0  0  0  0  0
    3.2172   -1.8230   22.5311 C   0  0  0  0  0  0  0  0  0  0  0  0
    2.6677   -2.0337   23.7118 N   0  0  0  0  0  0  0  0  0  0  0  0
   -1.5349   -3.4583   25.9247 H   0  0  0  0  0  0  0  0  0  0  0  0
   -2.2475   -4.0641   24.3257 H   0  0  0  0  0  0  0  0  0  0  0  0
   -1.1846   -2.7281   24.4095 H   0  0  0  0  0  0  0  0  0  0  0  0
   -0.7975   -5.2465   26.5988 H   0  0  0  0  0  0  0  0  0  0  0  0
   -0.1739   -6.4060   25.5021 H   0  0  0  0  0  0  0  0  0  0  0  0
   -3.0908   -5.5693   25.6217 H   0  0  0  0  0  0  0  0  0  0  0  0
   -2.4402   -6.3797   24.2005 H   0  0  0  0  0  0  0  0  0  0  0  0
   -3.1576   -8.2423   25.2692 H   0  0  0  0  0  0  0  0  0  0  0  0
   -4.5893   -9.9709   25.5881 H   0  0  0  0  0  0  0  0  0  0  0  0
   -4.1646  -12.0834   28.9915 H   0  0  0  0  0  0  0  0  0  0  0  0
   -2.7406  -10.0127   29.4727 H   0  0  0  0  0  0  0  0  0  0  0  0
    0.8809   -3.9426   21.6706 H   0  0  0  0  0  0  0  0  0  0  0  0
    2.4257   -3.2469   19.5681 H   0  0  0  0  0  0  0  0  0  0  0  0
    4.4689   -1.8908   18.8820 H   0  0  0  0  0  0  0  0  0  0  0  0
    5.6040   -0.5661   20.6617 H   0  0  0  0  0  0  0  0  0  0  0  0
  1  2  1  0
  2  3  1  0
  3  4  1  0
  4  5  1  0
  5  6  1  0
  6  7  2  0
  6  8  1  0
  8  9  1  0
  9 10  2  0
 10 11  1  0
 11 12  1  0
  2 13  1  0
 13 14  2  0
 13 15  1  0
 15 16  2  0
 16 17  1  0
 17 18  1  0
 18 19  2  0
 19 20  1  0
 20 21  2  0
 21 22  1  0
 22 23  2  0
 12  8  2  0
 23 15  1  0
 22 17  1  0
  1 24  1  0
  1 25  1  0
  1 26  1  0
  3 27  1  0
  3 28  1  0
  4 29  1  0
  4 30  1  0
  5 31  1  0
  9 32  1  0
 11 33  1  0
 12 34  1  0
 16 35  1  0
 18 36  1  0
 19 37  1  0
 20 38  1  0
M  END
>  <Energy>  (1034) 
145.51604725686553

>  <compound_id>  (1034) 
25639

>  <target_id>  (1034) 
1

>  <reference_id>  (1034) 
123

>  <inspiration_ids>  (1034) 
[106, 123]

>  <energy_score>  (1034) 
65.468032598876

>  <distance_score>  (1034) 
15.153469270657784

>  <path>  (1034) 
/opt/xchem-fragalysis-2/maxwin/BulkDock/SCRATCH/511017/C25639-P123/C25639-P123.minimised.mol

>  <scratch_subdir>  (1034) 
/opt/xchem-fragalysis-2/maxwin/BulkDock/SCRATCH/511017/C25639-P123

>  <fragmenstein_runtime>  (1034) 
31.752100706100464

>  <fragmenstein_outcome>  (1034) 
too moved

>  <fragmenstein_mode>  (1034) 
expansion

>  <fragmenstein_error>  (1034) 


$$$$
C25640-P106
     RDKit          3D

 34 37  0  0  0  0  0  0  0  0999 V2000
   -6.4346  -15.5745   28.0067 O   0  0  0  0  0  0  0  0  0  0  0  0
   -5.9985  -16.4922   27.3679 C   0  0  0  0  0  0  0  0  0  0  0  0
   -4.3808  -16.3092   26.4416 N   0  0  0  0  0  0  0  0  0  0  0  0
   -3.1988  -14.7605   26.1746 C   0  0  0  0  0  0  0  0  0  0  0  0
   -1.4761  -13.9568   25.4574 C   0  0  0  0  0  0  0  0  0  0  0  0
   -0.5741  -14.2622   24.0933 C   0  0  0  0  0  0  0  0  0  0  0  0
    0.6998  -13.9430   23.5707 N   0  0  0  0  0  0  0  0  0  0  0  0
    1.8926  -13.1757   24.3756 C   0  0  0  0  0  0  0  0  0  0  0  0
    3.1836  -13.4501   24.1224 N   0  0  0  0  0  0  0  0  0  0  0  0
    3.7447  -14.0991   25.3107 C   0  0  0  0  0  0  0  0  0  0  0  0
    2.7512  -13.9304   26.4571 C   0  0  0  0  0  0  0  0  0  0  0  0
    1.5016  -13.2758   25.7783 N   0  0  0  0  0  0  0  0  0  0  0  0
    0.0191  -13.3257   26.1395 C   0  0  0  0  0  0  0  0  0  0  0  0
   -7.2000  -18.0091   27.5122 C   0  0  0  0  0  0  0  0  0  0  0  0
   -8.7969  -18.2170   27.5205 C   0  0  0  0  0  0  0  0  0  0  0  0
   -9.5291  -20.5661   27.6337 S   0  0  0  0  0  0  0  0  0  0  0  0
   -9.1323  -19.4783   28.6710 C   0  0  0  0  0  0  0  0  0  0  0  0
  -10.4956  -20.6716   29.7792 C   0  0  0  0  0  0  0  0  0  0  0  0
  -10.7759  -20.9794   31.1902 C   0  0  0  0  0  0  0  0  0  0  0  0
  -11.6328  -21.9759   31.4390 N   0  0  0  0  0  0  0  0  0  0  0  0
  -12.0127  -22.3410   30.2246 N   0  0  0  0  0  0  0  0  0  0  0  0
  -11.4565  -21.5854   29.2325 C   0  0  0  0  0  0  0  0  0  0  0  0
   -7.6066  -18.8921   28.6609 N   0  0  0  0  0  0  0  0  0  0  0  0
   -4.2199  -17.1482   25.8995 H   0  0  0  0  0  0  0  0  0  0  0  0
   -3.1497  -14.4720   27.2322 H   0  0  0  0  0  0  0  0  0  0  0  0
   -3.9306  -14.0948   25.6966 H   0  0  0  0  0  0  0  0  0  0  0  0
    0.2059  -14.6999   24.5827 H   0  0  0  0  0  0  0  0  0  0  0  0
    4.6905  -14.6105   25.3147 H   0  0  0  0  0  0  0  0  0  0  0  0
    2.8574  -14.2051   27.5016 H   0  0  0  0  0  0  0  0  0  0  0  0
    0.0360  -13.7280   27.0904 H   0  0  0  0  0  0  0  0  0  0  0  0
   -9.5428  -17.4903   27.1968 H   0  0  0  0  0  0  0  0  0  0  0  0
  -10.4303  -20.4899   32.0807 H   0  0  0  0  0  0  0  0  0  0  0  0
  -12.6795  -23.1024   30.1451 H   0  0  0  0  0  0  0  0  0  0  0  0
  -11.7392  -21.8025   28.2135 H   0  0  0  0  0  0  0  0  0  0  0  0
  1  2  2  0
  2  3  1  0
  3  4  1  0
  4  5  1  0
  5  6  1  0
  6  7  2  0
  7  8  1  0
  8  9  2  0
  9 10  1  0
 10 11  2  0
 11 12  1  0
 12 13  1  0
  2 14  1  0
 14 15  2  0
 15 16  1  0
 16 17  1  0
 17 18  1  0
 18 19  1  0
 19 20  2  0
 20 21  1  0
 21 22  1  0
 17 23  2  0
 13  5  2  0
 23 14  1  0
 12  8  1  0
 22 18  2  0
  3 24  1  0
  4 25  1  0
  4 26  1  0
  6 27  1  0
 10 28  1  0
 11 29  1  0
 13 30  1  0
 15 31  1  0
 19 32  1  0
 21 33  1  0
 22 34  1  0
M  END
>  <Energy>  (1035) 
1215.5934984347775

>  <compound_id>  (1035) 
25640

>  <target_id>  (1035) 
1

>  <reference_id>  (1035) 
106

>  <inspiration_ids>  (1035) 
[106, 123]

>  <energy_score>  (1035) 
1107.5678074964176

>  <distance_score>  (1035) 
14.95127984580241

>  <path>  (1035) 
/opt/xchem-fragalysis-2/maxwin/BulkDock/SCRATCH/511017/C25640-P106/C25640-P106.minimised.mol

>  <scratch_subdir>  (1035) 
/opt/xchem-fragalysis-2/maxwin/BulkDock/SCRATCH/511017/C25640-P106

>  <fragmenstein_runtime>  (1035) 
18.329488515853882

>  <fragmenstein_outcome>  (1035) 
too moved

>  <fragmenstein_mode>  (1035) 
expansion

>  <fragmenstein_error>  (1035) 


$$$$
C25640-P123
     RDKit          3D

 34 37  0  0  0  0  0  0  0  0999 V2000
    3.3624  -10.5103   30.7796 O   0  0  0  0  0  0  0  0  0  0  0  0
    2.7545   -9.6407   30.2237 C   0  0  0  0  0  0  0  0  0  0  0  0
    3.2477   -8.4456   29.4630 N   0  0  0  0  0  0  0  0  0  0  0  0
    4.6750   -7.9109   29.2491 C   0  0  0  0  0  0  0  0  0  0  0  0
    5.2262   -7.1678   27.9728 C   0  0  0  0  0  0  0  0  0  0  0  0
    5.1072   -5.6559   27.8264 C   0  0  0  0  0  0  0  0  0  0  0  0
    5.6416   -4.8702   26.9342 N   0  0  0  0  0  0  0  0  0  0  0  0
    6.4610   -5.4489   26.0090 C   0  0  0  0  0  0  0  0  0  0  0  0
    7.1644   -4.8926   25.0376 N   0  0  0  0  0  0  0  0  0  0  0  0
    7.8417   -5.9179   24.4293 C   0  0  0  0  0  0  0  0  0  0  0  0
    7.5734   -7.1140   25.0535 C   0  0  0  0  0  0  0  0  0  0  0  0
    6.6779   -6.8210   26.0554 N   0  0  0  0  0  0  0  0  0  0  0  0
    6.0838   -7.6506   27.0317 C   0  0  0  0  0  0  0  0  0  0  0  0
    1.1749   -9.8315   30.4005 C   0  0  0  0  0  0  0  0  0  0  0  0
    0.1425   -9.1814   29.7465 C   0  0  0  0  0  0  0  0  0  0  0  0
   -1.4257   -9.7267   30.2730 S   0  0  0  0  0  0  0  0  0  0  0  0
   -0.7164  -10.9282   31.2949 C   0  0  0  0  0  0  0  0  0  0  0  0
   -1.6456  -12.0946   32.0044 C   0  0  0  0  0  0  0  0  0  0  0  0
   -3.0516  -12.2973   31.9142 C   0  0  0  0  0  0  0  0  0  0  0  0
   -3.4666  -13.4184   32.5232 N   0  0  0  0  0  0  0  0  0  0  0  0
   -2.3225  -13.9556   32.9857 N   0  0  0  0  0  0  0  0  0  0  0  0
   -1.2163  -13.1858   32.7319 C   0  0  0  0  0  0  0  0  0  0  0  0
    0.6166  -10.8549   31.3088 N   0  0  0  0  0  0  0  0  0  0  0  0
    2.4587   -7.8730   29.1968 H   0  0  0  0  0  0  0  0  0  0  0  0
    5.3196   -8.7806   29.4282 H   0  0  0  0  0  0  0  0  0  0  0  0
    4.8365   -7.2432   30.1044 H   0  0  0  0  0  0  0  0  0  0  0  0
    4.4641   -5.1833   28.5894 H   0  0  0  0  0  0  0  0  0  0  0  0
    8.4899   -5.7394   23.5819 H   0  0  0  0  0  0  0  0  0  0  0  0
    7.9125   -8.1213   24.8644 H   0  0  0  0  0  0  0  0  0  0  0  0
    6.3911   -8.6891   27.0047 H   0  0  0  0  0  0  0  0  0  0  0  0
    0.1905   -8.3965   29.0080 H   0  0  0  0  0  0  0  0  0  0  0  0
   -3.7840  -11.6819   31.4090 H   0  0  0  0  0  0  0  0  0  0  0  0
   -2.3676  -14.8456   33.4712 H   0  0  0  0  0  0  0  0  0  0  0  0
   -0.2293  -13.4996   33.0387 H   0  0  0  0  0  0  0  0  0  0  0  0
  1  2  2  0
  2  3  1  0
  3  4  1  0
  4  5  1  0
  5  6  1  0
  6  7  2  0
  7  8  1  0
  8  9  2  0
  9 10  1  0
 10 11  2  0
 11 12  1  0
 12 13  1  0
  2 14  1  0
 14 15  2  0
 15 16  1  0
 16 17  1  0
 17 18  1  0
 18 19  1  0
 19 20  2  0
 20 21  1  0
 21 22  1  0
 17 23  2  0
 13  5  2  0
 23 14  1  0
 12  8  1  0
 22 18  2  0
  3 24  1  0
  4 25  1  0
  4 26  1  0
  6 27  1  0
 10 28  1  0
 11 29  1  0
 13 30  1  0
 15 31  1  0
 19 32  1  0
 21 33  1  0
 22 34  1  0
M  END
>  <Energy>  (1036) 
83.977377549711662

>  <compound_id>  (1036) 
25640

>  <target_id>  (1036) 
1

>  <reference_id>  (1036) 
123

>  <inspiration_ids>  (1036) 
[106, 123]

>  <energy_score>  (1036) 
-24.04831338863613

>  <distance_score>  (1036) 
15.11995075329287

>  <path>  (1036) 
/opt/xchem-fragalysis-2/maxwin/BulkDock/SCRATCH/511017/C25640-P123/C25640-P123.minimised.mol

>  <scratch_subdir>  (1036) 
/opt/xchem-fragalysis-2/maxwin/BulkDock/SCRATCH/511017/C25640-P123

>  <fragmenstein_runtime>  (1036) 
33.30009579658508

>  <fragmenstein_outcome>  (1036) 
too moved

>  <fragmenstein_mode>  (1036) 
expansion

>  <fragmenstein_error>  (1036) 


$$$$
C25641-P106
     RDKit          3D

 41 43  0  0  0  0  0  0  0  0999 V2000
   -3.2629  -24.6649   27.7748 C   0  0  0  0  0  0  0  0  0  0  0  0
   -4.1802  -23.8734   28.7378 N   0  0  0  0  0  0  0  0  0  0  0  0
   -2.9661  -22.6670   28.3909 C   0  0  0  0  0  0  0  0  0  0  0  0
   -1.2670  -22.5463   28.4955 C   0  0  0  0  0  0  0  0  0  0  0  0
   -0.1843  -21.2806   28.0347 N   0  0  0  0  0  0  0  0  0  0  0  0
   -1.2881  -20.4434   28.5401 C   0  0  0  0  0  0  0  0  0  0  0  0
    0.2391  -20.8145   26.7004 C   0  0  0  0  0  0  0  0  0  0  0  0
   -0.1384  -21.1460   25.5994 O   0  0  0  0  0  0  0  0  0  0  0  0
    1.4939  -19.7628   26.6459 C   0  0  0  0  0  0  0  0  0  0  0  0
    1.9777  -18.7942   27.7073 C   0  0  0  0  0  0  0  0  0  0  0  0
    2.9925  -17.9643   27.6749 N   0  0  0  0  0  0  0  0  0  0  0  0
    3.7621  -17.9547   26.5465 C   0  0  0  0  0  0  0  0  0  0  0  0
    4.8603  -17.2692   26.2704 N   0  0  0  0  0  0  0  0  0  0  0  0
    5.2236  -17.6255   24.9976 C   0  0  0  0  0  0  0  0  0  0  0  0
    4.3064  -18.5051   24.4614 C   0  0  0  0  0  0  0  0  0  0  0  0
    3.3784  -18.7373   25.4632 N   0  0  0  0  0  0  0  0  0  0  0  0
    2.2583  -19.6010   25.5204 C   0  0  0  0  0  0  0  0  0  0  0  0
   -5.9818  -23.9956   28.2729 C   0  0  0  0  0  0  0  0  0  0  0  0
   -6.3384  -23.1146   27.5186 O   0  0  0  0  0  0  0  0  0  0  0  0
   -7.6081  -25.1301   28.8237 C   0  0  0  0  0  0  0  0  0  0  0  0
   -8.5635  -26.1955   28.1254 C   0  0  0  0  0  0  0  0  0  0  0  0
   -9.8290  -26.3278   28.5199 N   0  0  0  0  0  0  0  0  0  0  0  0
   -9.8598  -25.6034   29.6102 N   0  0  0  0  0  0  0  0  0  0  0  0
   -8.6563  -25.0155   29.8900 C   0  0  0  0  0  0  0  0  0  0  0  0
   -3.4638  -25.7420   27.8792 H   0  0  0  0  0  0  0  0  0  0  0  0
   -3.2882  -24.3188   26.7338 H   0  0  0  0  0  0  0  0  0  0  0  0
   -2.2443  -24.7143   28.1717 H   0  0  0  0  0  0  0  0  0  0  0  0
   -3.2630  -22.2833   27.4011 H   0  0  0  0  0  0  0  0  0  0  0  0
   -3.3046  -21.8897   29.0861 H   0  0  0  0  0  0  0  0  0  0  0  0
   -0.9795  -22.7844   29.5294 H   0  0  0  0  0  0  0  0  0  0  0  0
   -0.8619  -23.3396   27.8571 H   0  0  0  0  0  0  0  0  0  0  0  0
   -0.9089  -19.4120   28.5278 H   0  0  0  0  0  0  0  0  0  0  0  0
   -2.1382  -20.3978   27.8500 H   0  0  0  0  0  0  0  0  0  0  0  0
   -1.5356  -20.6130   29.5960 H   0  0  0  0  0  0  0  0  0  0  0  0
    1.3764  -18.8050   28.6312 H   0  0  0  0  0  0  0  0  0  0  0  0
    6.1277  -17.2299   24.5544 H   0  0  0  0  0  0  0  0  0  0  0  0
    4.2431  -19.0083   23.5084 H   0  0  0  0  0  0  0  0  0  0  0  0
    2.0633  -20.1765   24.6223 H   0  0  0  0  0  0  0  0  0  0  0  0
   -8.2602  -26.9210   27.3911 H   0  0  0  0  0  0  0  0  0  0  0  0
  -10.6972  -25.6107   30.1854 H   0  0  0  0  0  0  0  0  0  0  0  0
   -8.6476  -24.6387   30.9021 H   0  0  0  0  0  0  0  0  0  0  0  0
  1  2  1  0
  2  3  1  0
  3  4  1  0
  4  5  1  0
  5  6  1  0
  5  7  1  0
  7  8  2  0
  7  9  1  0
  9 10  1  0
 10 11  2  0
 11 12  1  0
 12 13  2  0
 13 14  1  0
 14 15  2  0
 15 16  1  0
 16 17  1  0
  2 18  1  0
 18 19  2  0
 18 20  1  0
 20 21  1  0
 21 22  2  0
 22 23  1  0
 23 24  1  0
 17  9  2  0
 24 20  2  0
 16 12  1  0
  1 25  1  0
  1 26  1  0
  1 27  1  0
  3 28  1  0
  3 29  1  0
  4 30  1  0
  4 31  1  0
  6 32  1  0
  6 33  1  0
  6 34  1  0
 10 35  1  0
 14 36  1  0
 15 37  1  0
 17 38  1  0
 21 39  1  0
 23 40  1  0
 24 41  1  0
M  END
>  <Energy>  (1037) 
478.03242005661548

>  <compound_id>  (1037) 
25641

>  <target_id>  (1037) 
1

>  <reference_id>  (1037) 
106

>  <inspiration_ids>  (1037) 
[106, 123]

>  <energy_score>  (1037) 
407.90866490000576

>  <distance_score>  (1037) 
17.26835822441978

>  <path>  (1037) 
/opt/xchem-fragalysis-2/maxwin/BulkDock/SCRATCH/511017/C25641-P106/C25641-P106.minimised.mol

>  <scratch_subdir>  (1037) 
/opt/xchem-fragalysis-2/maxwin/BulkDock/SCRATCH/511017/C25641-P106

>  <fragmenstein_runtime>  (1037) 
25.524425506591797

>  <fragmenstein_outcome>  (1037) 
too moved

>  <fragmenstein_mode>  (1037) 
expansion

>  <fragmenstein_error>  (1037) 


$$$$
C25641-P123
     RDKit          3D

 41 43  0  0  0  0  0  0  0  0999 V2000
   -0.8678   -6.4957   24.3149 C   0  0  0  0  0  0  0  0  0  0  0  0
   -1.1861   -5.9415   25.6466 N   0  0  0  0  0  0  0  0  0  0  0  0
   -0.2530   -4.7528   25.1220 C   0  0  0  0  0  0  0  0  0  0  0  0
   -0.3806   -3.8796   23.7782 C   0  0  0  0  0  0  0  0  0  0  0  0
    0.9092   -3.1483   23.1858 N   0  0  0  0  0  0  0  0  0  0  0  0
    0.3897   -2.0244   24.0235 C   0  0  0  0  0  0  0  0  0  0  0  0
    1.1960   -2.6824   21.8492 C   0  0  0  0  0  0  0  0  0  0  0  0
    0.4963   -2.6485   20.8655 O   0  0  0  0  0  0  0  0  0  0  0  0
    2.6266   -2.1466   21.5980 C   0  0  0  0  0  0  0  0  0  0  0  0
    3.6829   -1.7119   22.5720 C   0  0  0  0  0  0  0  0  0  0  0  0
    4.8298   -1.1313   22.3177 N   0  0  0  0  0  0  0  0  0  0  0  0
    5.1096   -0.8717   21.0047 C   0  0  0  0  0  0  0  0  0  0  0  0
    6.1119   -0.1940   20.4633 N   0  0  0  0  0  0  0  0  0  0  0  0
    5.8364   -0.1351   19.1212 C   0  0  0  0  0  0  0  0  0  0  0  0
    4.6952   -0.8353   18.8192 C   0  0  0  0  0  0  0  0  0  0  0  0
    4.2186   -1.2851   20.0239 N   0  0  0  0  0  0  0  0  0  0  0  0
    3.0174   -1.9195   20.3198 C   0  0  0  0  0  0  0  0  0  0  0  0
   -2.6077   -5.9914   25.8756 C   0  0  0  0  0  0  0  0  0  0  0  0
   -3.4636   -5.1789   25.6443 O   0  0  0  0  0  0  0  0  0  0  0  0
   -3.0518   -7.3076   26.4830 C   0  0  0  0  0  0  0  0  0  0  0  0
   -2.3678   -8.2803   27.2702 C   0  0  0  0  0  0  0  0  0  0  0  0
   -3.1191   -9.3383   27.6215 N   0  0  0  0  0  0  0  0  0  0  0  0
   -4.3251   -9.0410   27.1193 N   0  0  0  0  0  0  0  0  0  0  0  0
   -4.3321   -7.8606   26.4259 C   0  0  0  0  0  0  0  0  0  0  0  0
    0.1720   -6.5412   23.9704 H   0  0  0  0  0  0  0  0  0  0  0  0
   -1.5827   -6.1318   23.5682 H   0  0  0  0  0  0  0  0  0  0  0  0
   -1.1513   -7.5473   24.3906 H   0  0  0  0  0  0  0  0  0  0  0  0
   -0.4202   -4.0259   25.9294 H   0  0  0  0  0  0  0  0  0  0  0  0
    0.7944   -5.0428   25.2672 H   0  0  0  0  0  0  0  0  0  0  0  0
   -0.5142   -4.5779   22.9486 H   0  0  0  0  0  0  0  0  0  0  0  0
   -1.3367   -3.3318   23.7215 H   0  0  0  0  0  0  0  0  0  0  0  0
    1.1375   -1.2227   23.9412 H   0  0  0  0  0  0  0  0  0  0  0  0
    0.3551   -2.2253   25.1005 H   0  0  0  0  0  0  0  0  0  0  0  0
   -0.5174   -1.5524   23.6168 H   0  0  0  0  0  0  0  0  0  0  0  0
    3.4466   -1.9156   23.6295 H   0  0  0  0  0  0  0  0  0  0  0  0
    6.4745    0.4030   18.4348 H   0  0  0  0  0  0  0  0  0  0  0  0
    4.1712   -1.0143   17.8918 H   0  0  0  0  0  0  0  0  0  0  0  0
    2.3856   -2.1541   19.4703 H   0  0  0  0  0  0  0  0  0  0  0  0
   -1.3342   -8.2460   27.5951 H   0  0  0  0  0  0  0  0  0  0  0  0
   -5.0962   -9.6795   27.2887 H   0  0  0  0  0  0  0  0  0  0  0  0
   -5.2369   -7.4915   25.9631 H   0  0  0  0  0  0  0  0  0  0  0  0
  1  2  1  0
  2  3  1  0
  3  4  1  0
  4  5  1  0
  5  6  1  0
  5  7  1  0
  7  8  2  0
  7  9  1  0
  9 10  1  0
 10 11  2  0
 11 12  1  0
 12 13  2  0
 13 14  1  0
 14 15  2  0
 15 16  1  0
 16 17  1  0
  2 18  1  0
 18 19  2  0
 18 20  1  0
 20 21  1  0
 21 22  2  0
 22 23  1  0
 23 24  1  0
 17  9  2  0
 24 20  2  0
 16 12  1  0
  1 25  1  0
  1 26  1  0
  1 27  1  0
  3 28  1  0
  3 29  1  0
  4 30  1  0
  4 31  1  0
  6 32  1  0
  6 33  1  0
  6 34  1  0
 10 35  1  0
 14 36  1  0
 15 37  1  0
 17 38  1  0
 21 39  1  0
 23 40  1  0
 24 41  1  0
M  END
>  <Energy>  (1038) 
181.05968195144007

>  <compound_id>  (1038) 
25641

>  <target_id>  (1038) 
1

>  <reference_id>  (1038) 
123

>  <inspiration_ids>  (1038) 
[106, 123]

>  <energy_score>  (1038) 
110.93592679483623

>  <distance_score>  (1038) 
16.039328119223686

>  <path>  (1038) 
/opt/xchem-fragalysis-2/maxwin/BulkDock/SCRATCH/511017/C25641-P123/C25641-P123.minimised.mol

>  <scratch_subdir>  (1038) 
/opt/xchem-fragalysis-2/maxwin/BulkDock/SCRATCH/511017/C25641-P123

>  <fragmenstein_runtime>  (1038) 
22.200836658477783

>  <fragmenstein_outcome>  (1038) 
too moved

>  <fragmenstein_mode>  (1038) 
expansion

>  <fragmenstein_error>  (1038) 


$$$$
C25642-P106
     RDKit          3D

 39 41  0  0  0  0  0  0  0  0999 V2000
   -0.2995  -19.1738   19.0700 O   0  0  0  0  0  0  0  0  0  0  0  0
   -0.6107  -18.0495   19.3346 C   0  0  0  0  0  0  0  0  0  0  0  0
   -0.1008  -16.7814   18.8296 N   0  0  0  0  0  0  0  0  0  0  0  0
    0.8933  -16.4877   17.7597 C   0  0  0  0  0  0  0  0  0  0  0  0
    1.9463  -15.2330   17.5624 C   0  0  0  0  0  0  0  0  0  0  0  0
    2.6050  -15.7333   16.3566 O   0  0  0  0  0  0  0  0  0  0  0  0
    3.3400  -14.4532   18.5553 C   0  0  0  0  0  0  0  0  0  0  0  0
    3.8523  -12.6289   18.3019 N   0  0  0  0  0  0  0  0  0  0  0  0
    5.2806  -11.7262   18.8841 C   0  0  0  0  0  0  0  0  0  0  0  0
    6.1620  -12.1149   19.6128 O   0  0  0  0  0  0  0  0  0  0  0  0
    5.0395   -9.8026   18.1699 C   0  0  0  0  0  0  0  0  0  0  0  0
    3.2977   -9.2122   17.8733 C   0  0  0  0  0  0  0  0  0  0  0  0
    3.0015   -7.9134   17.8655 N   0  0  0  0  0  0  0  0  0  0  0  0
    4.3377   -6.8682   17.9220 C   0  0  0  0  0  0  0  0  0  0  0  0
    4.8233   -5.6870   18.3712 N   0  0  0  0  0  0  0  0  0  0  0  0
    6.1126   -5.7714   18.1493 C   0  0  0  0  0  0  0  0  0  0  0  0
    6.0815   -6.4955   17.0305 C   0  0  0  0  0  0  0  0  0  0  0  0
    5.4856   -7.3620   17.8852 N   0  0  0  0  0  0  0  0  0  0  0  0
    5.0903   -8.4986   18.5271 C   0  0  0  0  0  0  0  0  0  0  0  0
   -1.6370  -17.9600   20.4344 C   0  0  0  0  0  0  0  0  0  0  0  0
   -2.1211  -19.0849   21.2002 C   0  0  0  0  0  0  0  0  0  0  0  0
   -3.0131  -18.7683   22.1454 N   0  0  0  0  0  0  0  0  0  0  0  0
   -3.1409  -17.4450   22.0018 N   0  0  0  0  0  0  0  0  0  0  0  0
   -2.3534  -16.9193   21.0003 C   0  0  0  0  0  0  0  0  0  0  0  0
   -0.6515  -16.0315   19.2107 H   0  0  0  0  0  0  0  0  0  0  0  0
    1.4453  -17.4249   17.5974 H   0  0  0  0  0  0  0  0  0  0  0  0
    0.2563  -16.4384   16.8630 H   0  0  0  0  0  0  0  0  0  0  0  0
    1.2850  -14.4044   17.2867 H   0  0  0  0  0  0  0  0  0  0  0  0
    3.0951  -14.9660   15.9873 H   0  0  0  0  0  0  0  0  0  0  0  0
    4.2255  -15.0354   18.3083 H   0  0  0  0  0  0  0  0  0  0  0  0
    2.7417  -14.4646   19.4511 H   0  0  0  0  0  0  0  0  0  0  0  0
    3.2565  -12.0143   17.7782 H   0  0  0  0  0  0  0  0  0  0  0  0
    2.5796   -9.9780   17.5946 H   0  0  0  0  0  0  0  0  0  0  0  0
    6.7090   -5.1419   18.7599 H   0  0  0  0  0  0  0  0  0  0  0  0
    6.6968   -6.5995   16.1627 H   0  0  0  0  0  0  0  0  0  0  0  0
    5.4618   -8.0545   19.4131 H   0  0  0  0  0  0  0  0  0  0  0  0
   -1.8253  -20.1215   21.0833 H   0  0  0  0  0  0  0  0  0  0  0  0
   -3.7849  -16.9567   22.6157 H   0  0  0  0  0  0  0  0  0  0  0  0
   -2.3897  -15.8616   20.7931 H   0  0  0  0  0  0  0  0  0  0  0  0
  1  2  2  0
  2  3  1  0
  3  4  1  0
  4  5  1  0
  5  6  1  0
  5  7  1  0
  7  8  1  0
  8  9  1  0
  9 10  2  0
  9 11  1  0
 11 12  1  0
 12 13  2  0
 13 14  1  0
 14 15  2  0
 15 16  1  0
 16 17  2  0
 17 18  1  0
 18 19  1  0
  2 20  1  0
 20 21  1  0
 21 22  2  0
 22 23  1  0
 23 24  1  0
 19 11  2  0
 24 20  2  0
 18 14  1  0
  3 25  1  0
  4 26  1  0
  4 27  1  0
  5 28  1  0
  6 29  1  0
  7 30  1  0
  7 31  1  0
  8 32  1  0
 12 33  1  0
 16 34  1  0
 17 35  1  0
 19 36  1  0
 21 37  1  0
 23 38  1  0
 24 39  1  0
M  END
>  <Energy>  (1039) 
583.64633266693147

>  <compound_id>  (1039) 
25642

>  <target_id>  (1039) 
1

>  <reference_id>  (1039) 
106

>  <inspiration_ids>  (1039) 
[106, 123]

>  <energy_score>  (1039) 
514.5669863404712

>  <distance_score>  (1039) 
14.377031683308651

>  <path>  (1039) 
/opt/xchem-fragalysis-2/maxwin/BulkDock/SCRATCH/511017/C25642-P106/C25642-P106.minimised.mol

>  <scratch_subdir>  (1039) 
/opt/xchem-fragalysis-2/maxwin/BulkDock/SCRATCH/511017/C25642-P106

>  <fragmenstein_runtime>  (1039) 
24.338160514831543

>  <fragmenstein_outcome>  (1039) 
too moved

>  <fragmenstein_mode>  (1039) 
expansion

>  <fragmenstein_error>  (1039) 


$$$$
C25642-P123
     RDKit          3D

 39 41  0  0  0  0  0  0  0  0999 V2000
    1.4282  -11.9103   26.6977 O   0  0  0  0  0  0  0  0  0  0  0  0
    1.1330  -12.8131   25.9208 C   0  0  0  0  0  0  0  0  0  0  0  0
    1.7798  -13.2106   24.2344 N   0  0  0  0  0  0  0  0  0  0  0  0
    3.0871  -12.5092   23.2800 C   0  0  0  0  0  0  0  0  0  0  0  0
    4.0843  -12.5167   21.4881 C   0  0  0  0  0  0  0  0  0  0  0  0
    4.4517  -11.2412   22.0329 O   0  0  0  0  0  0  0  0  0  0  0  0
    5.4721  -12.1753   20.0121 C   0  0  0  0  0  0  0  0  0  0  0  0
    6.5684  -11.0022   20.4019 N   0  0  0  0  0  0  0  0  0  0  0  0
    8.0474  -10.2110   19.4484 C   0  0  0  0  0  0  0  0  0  0  0  0
    8.3269  -10.4450   18.2707 O   0  0  0  0  0  0  0  0  0  0  0  0
    9.6079   -8.9434   20.3330 C   0  0  0  0  0  0  0  0  0  0  0  0
   10.5212   -8.9770   22.1747 C   0  0  0  0  0  0  0  0  0  0  0  0
   11.4953   -8.5144   22.9210 N   0  0  0  0  0  0  0  0  0  0  0  0
   12.1214   -7.4980   22.3847 C   0  0  0  0  0  0  0  0  0  0  0  0
   13.0797   -6.7050   22.7860 N   0  0  0  0  0  0  0  0  0  0  0  0
   13.0357   -5.6529   21.9258 C   0  0  0  0  0  0  0  0  0  0  0  0
   12.0342   -5.8500   21.0131 C   0  0  0  0  0  0  0  0  0  0  0  0
   11.4988   -7.1049   21.2683 N   0  0  0  0  0  0  0  0  0  0  0  0
   10.4171   -7.9682   20.6085 C   0  0  0  0  0  0  0  0  0  0  0  0
    0.1183  -13.7893   26.6018 C   0  0  0  0  0  0  0  0  0  0  0  0
   -1.3032  -13.9588   26.4993 C   0  0  0  0  0  0  0  0  0  0  0  0
   -1.8421  -14.7956   27.4010 N   0  0  0  0  0  0  0  0  0  0  0  0
   -0.7979  -15.1014   28.1835 N   0  0  0  0  0  0  0  0  0  0  0  0
    0.3591  -14.4790   27.7962 C   0  0  0  0  0  0  0  0  0  0  0  0
    1.2428  -13.9946   23.8279 H   0  0  0  0  0  0  0  0  0  0  0  0
    3.1357  -13.5939   23.1036 H   0  0  0  0  0  0  0  0  0  0  0  0
    3.7752  -12.5983   24.0501 H   0  0  0  0  0  0  0  0  0  0  0  0
    3.3973  -13.0782   20.9009 H   0  0  0  0  0  0  0  0  0  0  0  0
    3.7307  -10.8989   22.5650 H   0  0  0  0  0  0  0  0  0  0  0  0
    6.0315  -13.0777   20.1814 H   0  0  0  0  0  0  0  0  0  0  0  0
    5.1172  -12.2409   19.0202 H   0  0  0  0  0  0  0  0  0  0  0  0
    6.4959  -10.6100   21.2871 H   0  0  0  0  0  0  0  0  0  0  0  0
   10.1628   -9.7870   22.8350 H   0  0  0  0  0  0  0  0  0  0  0  0
   13.7096   -4.8099   22.0115 H   0  0  0  0  0  0  0  0  0  0  0  0
   11.7368   -5.2513   20.1807 H   0  0  0  0  0  0  0  0  0  0  0  0
    9.6844   -7.4489   19.9717 H   0  0  0  0  0  0  0  0  0  0  0  0
   -1.9785  -13.4747   25.8182 H   0  0  0  0  0  0  0  0  0  0  0  0
   -0.9499  -15.7063   28.9841 H   0  0  0  0  0  0  0  0  0  0  0  0
    1.2625  -14.5717   28.3817 H   0  0  0  0  0  0  0  0  0  0  0  0
  1  2  2  0
  2  3  1  0
  3  4  1  0
  4  5  1  0
  5  6  1  0
  5  7  1  0
  7  8  1  0
  8  9  1  0
  9 10  2  0
  9 11  1  0
 11 12  1  0
 12 13  2  0
 13 14  1  0
 14 15  2  0
 15 16  1  0
 16 17  2  0
 17 18  1  0
 18 19  1  0
  2 20  1  0
 20 21  1  0
 21 22  2  0
 22 23  1  0
 23 24  1  0
 19 11  2  0
 24 20  2  0
 18 14  1  0
  3 25  1  0
  4 26  1  0
  4 27  1  0
  5 28  1  0
  6 29  1  0
  7 30  1  0
  7 31  1  0
  8 32  1  0
 12 33  1  0
 16 34  1  0
 17 35  1  0
 19 36  1  0
 21 37  1  0
 23 38  1  0
 24 39  1  0
M  END
>  <Energy>  (1040) 
939.12698478534071

>  <compound_id>  (1040) 
25642

>  <target_id>  (1040) 
1

>  <reference_id>  (1040) 
123

>  <inspiration_ids>  (1040) 
[106, 123]

>  <energy_score>  (1040) 
870.0476384588758

>  <distance_score>  (1040) 
13.885315023747083

>  <path>  (1040) 
/opt/xchem-fragalysis-2/maxwin/BulkDock/SCRATCH/511017/C25642-P123/C25642-P123.minimised.mol

>  <scratch_subdir>  (1040) 
/opt/xchem-fragalysis-2/maxwin/BulkDock/SCRATCH/511017/C25642-P123

>  <fragmenstein_runtime>  (1040) 
28.259737491607666

>  <fragmenstein_outcome>  (1040) 
too moved

>  <fragmenstein_mode>  (1040) 
expansion

>  <fragmenstein_error>  (1040) 


$$$$
C25643-P106
     RDKit          3D

 41 43  0  0  0  0  0  0  0  0999 V2000
    7.0905  -18.5888   24.6187 C   0  0  0  0  0  0  0  0  0  0  0  0
    5.9210  -17.6011   24.5533 C   0  0  0  0  0  0  0  0  0  0  0  0
    4.5608  -18.3942   24.4461 C   0  0  0  0  0  0  0  0  0  0  0  0
    4.1551  -19.0419   25.7980 C   0  0  0  0  0  0  0  0  0  0  0  0
    2.7711  -19.4602   26.0408 N   0  0  0  0  0  0  0  0  0  0  0  0
    2.0283  -19.6085   27.2761 C   0  0  0  0  0  0  0  0  0  0  0  0
    2.3332  -19.3513   28.4031 O   0  0  0  0  0  0  0  0  0  0  0  0
    0.6552  -20.1883   27.1340 C   0  0  0  0  0  0  0  0  0  0  0  0
   -0.2769  -20.3793   28.2140 C   0  0  0  0  0  0  0  0  0  0  0  0
   -1.4275  -20.9532   27.8464 N   0  0  0  0  0  0  0  0  0  0  0  0
   -1.2706  -21.1218   26.5279 N   0  0  0  0  0  0  0  0  0  0  0  0
   -0.0528  -20.6906   26.0562 C   0  0  0  0  0  0  0  0  0  0  0  0
    6.3228  -16.4851   23.5893 N   0  0  0  0  0  0  0  0  0  0  0  0
    5.3831  -14.9258   22.8980 C   0  0  0  0  0  0  0  0  0  0  0  0
    4.2047  -14.9420   23.2821 O   0  0  0  0  0  0  0  0  0  0  0  0
    6.6056  -13.1455   21.5982 C   0  0  0  0  0  0  0  0  0  0  0  0
    6.9501  -11.6196   20.1303 C   0  0  0  0  0  0  0  0  0  0  0  0
    8.1583  -10.2317   19.9098 N   0  0  0  0  0  0  0  0  0  0  0  0
    9.5363   -9.2299   21.1471 C   0  0  0  0  0  0  0  0  0  0  0  0
   10.6946   -8.4413   21.4160 N   0  0  0  0  0  0  0  0  0  0  0  0
   11.2067   -8.9076   22.8084 C   0  0  0  0  0  0  0  0  0  0  0  0
   10.6914  -10.1075   23.4271 C   0  0  0  0  0  0  0  0  0  0  0  0
    9.8801  -10.8937   22.4682 N   0  0  0  0  0  0  0  0  0  0  0  0
    8.1553  -12.1673   22.4102 C   0  0  0  0  0  0  0  0  0  0  0  0
    7.2042  -19.1170   23.6658 H   0  0  0  0  0  0  0  0  0  0  0  0
    6.9525  -19.3310   25.4102 H   0  0  0  0  0  0  0  0  0  0  0  0
    8.0322  -18.0657   24.8196 H   0  0  0  0  0  0  0  0  0  0  0  0
    5.8856  -17.0607   25.5078 H   0  0  0  0  0  0  0  0  0  0  0  0
    4.6131  -19.1543   23.6589 H   0  0  0  0  0  0  0  0  0  0  0  0
    3.8422  -17.6740   24.1315 H   0  0  0  0  0  0  0  0  0  0  0  0
    4.7623  -19.9395   25.9594 H   0  0  0  0  0  0  0  0  0  0  0  0
    4.3975  -18.3579   26.6196 H   0  0  0  0  0  0  0  0  0  0  0  0
    2.1714  -19.7023   25.2645 H   0  0  0  0  0  0  0  0  0  0  0  0
   -0.1277  -20.1190   29.2558 H   0  0  0  0  0  0  0  0  0  0  0  0
   -2.0324  -21.5400   26.0037 H   0  0  0  0  0  0  0  0  0  0  0  0
    0.1858  -20.7913   25.0082 H   0  0  0  0  0  0  0  0  0  0  0  0
    7.2905  -16.3858   23.3314 H   0  0  0  0  0  0  0  0  0  0  0  0
    6.1986  -11.6207   19.3298 H   0  0  0  0  0  0  0  0  0  0  0  0
   11.9531   -8.2548   23.2517 H   0  0  0  0  0  0  0  0  0  0  0  0
   10.8734  -10.5631   24.3890 H   0  0  0  0  0  0  0  0  0  0  0  0
    8.2891  -12.4297   23.4960 H   0  0  0  0  0  0  0  0  0  0  0  0
  1  2  1  0
  2  3  1  0
  3  4  1  0
  4  5  1  0
  5  6  1  0
  6  7  2  0
  6  8  1  0
  8  9  1  0
  9 10  2  0
 10 11  1  0
 11 12  1  0
  2 13  1  0
 13 14  1  0
 14 15  2  0
 14 16  1  0
 16 17  1  0
 17 18  2  0
 18 19  1  0
 19 20  2  0
 20 21  1  0
 21 22  2  0
 22 23  1  0
 23 24  1  0
 12  8  2  0
 24 16  2  0
 23 19  1  0
  1 25  1  0
  1 26  1  0
  1 27  1  0
  2 28  1  0
  3 29  1  0
  3 30  1  0
  4 31  1  0
  4 32  1  0
  5 33  1  0
  9 34  1  0
 11 35  1  0
 12 36  1  0
 13 37  1  0
 17 38  1  0
 21 39  1  0
 22 40  1  0
 24 41  1  0
M  END
>  <Energy>  (1041) 
2041.5390831978521

>  <compound_id>  (1041) 
25643

>  <target_id>  (1041) 
1

>  <reference_id>  (1041) 
106

>  <inspiration_ids>  (1041) 
[106, 123]

>  <energy_score>  (1041) 
2006.644964592208

>  <distance_score>  (1041) 
13.671875818759958

>  <path>  (1041) 
/opt/xchem-fragalysis-2/maxwin/BulkDock/SCRATCH/511017/C25643-P106/C25643-P106.minimised.mol

>  <scratch_subdir>  (1041) 
/opt/xchem-fragalysis-2/maxwin/BulkDock/SCRATCH/511017/C25643-P106

>  <fragmenstein_runtime>  (1041) 
31.5609393119812

>  <fragmenstein_outcome>  (1041) 
too moved

>  <fragmenstein_mode>  (1041) 
expansion

>  <fragmenstein_error>  (1041) 


$$$$
C25643-P123
     RDKit          3D

 41 43  0  0  0  0  0  0  0  0999 V2000
    6.7593  -16.1453   27.6620 C   0  0  0  0  0  0  0  0  0  0  0  0
    5.6587  -15.1799   27.1961 C   0  0  0  0  0  0  0  0  0  0  0  0
    4.3575  -15.3042   28.1228 C   0  0  0  0  0  0  0  0  0  0  0  0
    3.8427  -16.7801   28.2231 C   0  0  0  0  0  0  0  0  0  0  0  0
    2.5191  -17.1050   28.7769 N   0  0  0  0  0  0  0  0  0  0  0  0
    2.1011  -18.1594   29.6783 C   0  0  0  0  0  0  0  0  0  0  0  0
    2.7415  -18.9834   30.2625 O   0  0  0  0  0  0  0  0  0  0  0  0
    0.6133  -18.3096   29.8298 C   0  0  0  0  0  0  0  0  0  0  0  0
   -0.5042  -17.4629   29.6100 C   0  0  0  0  0  0  0  0  0  0  0  0
   -1.6865  -18.0314   29.8850 N   0  0  0  0  0  0  0  0  0  0  0  0
   -1.3553  -19.2469   30.3392 N   0  0  0  0  0  0  0  0  0  0  0  0
   -0.0083  -19.4639   30.3136 C   0  0  0  0  0  0  0  0  0  0  0  0
    6.2895  -13.8474   26.7996 N   0  0  0  0  0  0  0  0  0  0  0  0
    7.6290  -13.3129   27.0402 C   0  0  0  0  0  0  0  0  0  0  0  0
    8.5437  -13.7539   27.6814 O   0  0  0  0  0  0  0  0  0  0  0  0
    8.0198  -12.0233   26.2799 C   0  0  0  0  0  0  0  0  0  0  0  0
    9.0674  -12.1501   25.1717 C   0  0  0  0  0  0  0  0  0  0  0  0
    9.7646  -11.2131   24.5960 N   0  0  0  0  0  0  0  0  0  0  0  0
    9.5343   -9.9456   25.0152 C   0  0  0  0  0  0  0  0  0  0  0  0
   10.0507   -8.8146   24.5681 N   0  0  0  0  0  0  0  0  0  0  0  0
    9.6292   -7.8537   25.4418 C   0  0  0  0  0  0  0  0  0  0  0  0
    8.7443   -8.3831   26.3546 C   0  0  0  0  0  0  0  0  0  0  0  0
    8.6395   -9.7173   26.0526 N   0  0  0  0  0  0  0  0  0  0  0  0
    7.8981  -10.7387   26.6794 C   0  0  0  0  0  0  0  0  0  0  0  0
    6.4135  -17.1820   27.6893 H   0  0  0  0  0  0  0  0  0  0  0  0
    7.1162  -15.8759   28.6613 H   0  0  0  0  0  0  0  0  0  0  0  0
    7.6141  -16.1292   26.9768 H   0  0  0  0  0  0  0  0  0  0  0  0
    5.3222  -15.5542   26.2197 H   0  0  0  0  0  0  0  0  0  0  0  0
    3.5847  -14.6362   27.7461 H   0  0  0  0  0  0  0  0  0  0  0  0
    4.6142  -14.9438   29.1257 H   0  0  0  0  0  0  0  0  0  0  0  0
    3.8406  -17.2222   27.2203 H   0  0  0  0  0  0  0  0  0  0  0  0
    4.5537  -17.3601   28.8212 H   0  0  0  0  0  0  0  0  0  0  0  0
    1.7011  -16.6492   28.4021 H   0  0  0  0  0  0  0  0  0  0  0  0
   -0.5144  -16.4380   29.2692 H   0  0  0  0  0  0  0  0  0  0  0  0
   -2.0968  -19.8683   30.6499 H   0  0  0  0  0  0  0  0  0  0  0  0
    0.4127  -20.4022   30.6477 H   0  0  0  0  0  0  0  0  0  0  0  0
    5.7482  -13.1649   26.2754 H   0  0  0  0  0  0  0  0  0  0  0  0
    9.2540  -13.1906   24.8500 H   0  0  0  0  0  0  0  0  0  0  0  0
    9.9766   -6.8304   25.3590 H   0  0  0  0  0  0  0  0  0  0  0  0
    8.2118   -7.9486   27.1864 H   0  0  0  0  0  0  0  0  0  0  0  0
    7.3206  -10.4549   27.5488 H   0  0  0  0  0  0  0  0  0  0  0  0
  1  2  1  0
  2  3  1  0
  3  4  1  0
  4  5  1  0
  5  6  1  0
  6  7  2  0
  6  8  1  0
  8  9  1  0
  9 10  2  0
 10 11  1  0
 11 12  1  0
  2 13  1  0
 13 14  1  0
 14 15  2  0
 14 16  1  0
 16 17  1  0
 17 18  2  0
 18 19  1  0
 19 20  2  0
 20 21  1  0
 21 22  2  0
 22 23  1  0
 23 24  1  0
 12  8  2  0
 24 16  2  0
 23 19  1  0
  1 25  1  0
  1 26  1  0
  1 27  1  0
  2 28  1  0
  3 29  1  0
  3 30  1  0
  4 31  1  0
  4 32  1  0
  5 33  1  0
  9 34  1  0
 11 35  1  0
 12 36  1  0
 13 37  1  0
 17 38  1  0
 21 39  1  0
 22 40  1  0
 24 41  1  0
M  END
>  <Energy>  (1042) 
34.897996545577286

>  <compound_id>  (1042) 
25643

>  <target_id>  (1042) 
1

>  <reference_id>  (1042) 
123

>  <inspiration_ids>  (1042) 
[106, 123]

>  <energy_score>  (1042) 
0.003877939921892448

>  <distance_score>  (1042) 
14.612643553336175

>  <path>  (1042) 
/opt/xchem-fragalysis-2/maxwin/BulkDock/SCRATCH/511017/C25643-P123/C25643-P123.minimised.mol

>  <scratch_subdir>  (1042) 
/opt/xchem-fragalysis-2/maxwin/BulkDock/SCRATCH/511017/C25643-P123

>  <fragmenstein_runtime>  (1042) 
46.574703216552734

>  <fragmenstein_outcome>  (1042) 
too moved

>  <fragmenstein_mode>  (1042) 
expansion

>  <fragmenstein_error>  (1042) 


$$$$
C25644-P106
     RDKit          3D

 42 44  0  0  0  0  0  0  0  0999 V2000
   -3.6051  -15.4601   27.1313 O   0  0  0  0  0  0  0  0  0  0  0  0
   -3.9699  -14.3298   27.2846 C   0  0  0  0  0  0  0  0  0  0  0  0
   -5.2890  -13.7917   27.5390 N   0  0  0  0  0  0  0  0  0  0  0  0
   -6.6161  -14.4828   27.7945 C   0  0  0  0  0  0  0  0  0  0  0  0
   -7.1754  -15.8799   27.0778 C   0  0  0  0  0  0  0  0  0  0  0  0
   -7.5477  -17.4292   27.5617 N   0  0  0  0  0  0  0  0  0  0  0  0
   -6.8081  -16.9154   28.8475 C   0  0  0  0  0  0  0  0  0  0  0  0
   -6.2644  -17.3202   30.2325 C   0  0  0  0  0  0  0  0  0  0  0  0
   -5.9267  -16.1076   30.9520 O   0  0  0  0  0  0  0  0  0  0  0  0
   -9.0284  -18.1855   27.9569 C   0  0  0  0  0  0  0  0  0  0  0  0
  -10.0111  -17.4874   27.9930 O   0  0  0  0  0  0  0  0  0  0  0  0
   -9.4952  -20.1607   28.2076 C   0  0  0  0  0  0  0  0  0  0  0  0
  -10.6791  -21.3203   27.5532 C   0  0  0  0  0  0  0  0  0  0  0  0
  -11.0858  -22.4149   28.1922 N   0  0  0  0  0  0  0  0  0  0  0  0
  -11.0949  -21.9381   29.3969 N   0  0  0  0  0  0  0  0  0  0  0  0
  -10.4167  -20.7524   29.4968 C   0  0  0  0  0  0  0  0  0  0  0  0
   -2.8552  -13.2353   27.3247 C   0  0  0  0  0  0  0  0  0  0  0  0
   -1.4808  -13.4670   27.2172 C   0  0  0  0  0  0  0  0  0  0  0  0
   -0.8348  -12.3105   27.5974 N   0  0  0  0  0  0  0  0  0  0  0  0
    0.5108  -12.0688   27.8770 C   0  0  0  0  0  0  0  0  0  0  0  0
    0.8973  -10.8691   28.3415 C   0  0  0  0  0  0  0  0  0  0  0  0
   -0.1935   -9.8581   28.4262 C   0  0  0  0  0  0  0  0  0  0  0  0
   -1.4502  -10.0567   28.1534 N   0  0  0  0  0  0  0  0  0  0  0  0
   -1.8144  -11.3378   27.7868 C   0  0  0  0  0  0  0  0  0  0  0  0
   -3.0225  -11.8565   27.5654 N   0  0  0  0  0  0  0  0  0  0  0  0
   -5.2129  -12.7889   27.6979 H   0  0  0  0  0  0  0  0  0  0  0  0
   -6.7347  -14.4624   28.8804 H   0  0  0  0  0  0  0  0  0  0  0  0
   -7.3237  -13.7202   27.4392 H   0  0  0  0  0  0  0  0  0  0  0  0
   -6.5075  -16.0657   26.2251 H   0  0  0  0  0  0  0  0  0  0  0  0
   -8.1430  -15.5881   26.6453 H   0  0  0  0  0  0  0  0  0  0  0  0
   -7.5435  -16.1799   29.2039 H   0  0  0  0  0  0  0  0  0  0  0  0
   -5.8415  -16.5437   28.4718 H   0  0  0  0  0  0  0  0  0  0  0  0
   -6.9850  -17.7946   30.8541 H   0  0  0  0  0  0  0  0  0  0  0  0
   -5.3308  -17.8809   30.1976 H   0  0  0  0  0  0  0  0  0  0  0  0
   -5.6058  -16.4046   31.8224 H   0  0  0  0  0  0  0  0  0  0  0  0
  -11.1877  -21.1824   26.6108 H   0  0  0  0  0  0  0  0  0  0  0  0
  -11.5901  -22.4397   30.1285 H   0  0  0  0  0  0  0  0  0  0  0  0
  -10.5465  -20.3585   30.4819 H   0  0  0  0  0  0  0  0  0  0  0  0
   -0.9345  -14.3796   27.0222 H   0  0  0  0  0  0  0  0  0  0  0  0
    1.1799  -12.9110   27.7522 H   0  0  0  0  0  0  0  0  0  0  0  0
    1.9016  -10.6094   28.6389 H   0  0  0  0  0  0  0  0  0  0  0  0
    0.1259   -8.8515   28.7444 H   0  0  0  0  0  0  0  0  0  0  0  0
  1  2  2  0
  2  3  1  0
  3  4  1  0
  4  5  1  0
  5  6  1  0
  6  7  1  0
  7  8  1  0
  8  9  1  0
  6 10  1  0
 10 11  2  0
 10 12  1  0
 12 13  1  0
 13 14  2  0
 14 15  1  0
 15 16  1  0
  2 17  1  0
 17 18  2  0
 18 19  1  0
 19 20  1  0
 20 21  2  0
 21 22  1  0
 22 23  2  0
 23 24  1  0
 24 25  2  0
 16 12  2  0
 25 17  1  0
 24 19  1  0
  3 26  1  0
  4 27  1  0
  4 28  1  0
  5 29  1  0
  5 30  1  0
  7 31  1  0
  7 32  1  0
  8 33  1  0
  8 34  1  0
  9 35  1  0
 13 36  1  0
 15 37  1  0
 16 38  1  0
 18 39  1  0
 20 40  1  0
 21 41  1  0
 22 42  1  0
M  END
>  <Energy>  (1043) 
473.42656742002026

>  <compound_id>  (1043) 
25644

>  <target_id>  (1043) 
1

>  <reference_id>  (1043) 
106

>  <inspiration_ids>  (1043) 
[106, 123]

>  <energy_score>  (1043) 
378.953661369691

>  <distance_score>  (1043) 
15.979312594922247

>  <path>  (1043) 
/opt/xchem-fragalysis-2/maxwin/BulkDock/SCRATCH/511017/C25644-P106/C25644-P106.minimised.mol

>  <scratch_subdir>  (1043) 
/opt/xchem-fragalysis-2/maxwin/BulkDock/SCRATCH/511017/C25644-P106

>  <fragmenstein_runtime>  (1043) 
42.92172932624817

>  <fragmenstein_outcome>  (1043) 
too moved

>  <fragmenstein_mode>  (1043) 
expansion

>  <fragmenstein_error>  (1043) 


$$$$
C25644-P123
     RDKit          3D

 42 44  0  0  0  0  0  0  0  0999 V2000
   -5.6247  -10.4110   22.3816 O   0  0  0  0  0  0  0  0  0  0  0  0
   -5.1723   -9.7484   23.2661 C   0  0  0  0  0  0  0  0  0  0  0  0
   -5.5046   -9.6930   24.6520 N   0  0  0  0  0  0  0  0  0  0  0  0
   -6.4315  -10.4922   25.4467 C   0  0  0  0  0  0  0  0  0  0  0  0
   -5.6847  -11.4375   26.4311 C   0  0  0  0  0  0  0  0  0  0  0  0
   -6.3081  -12.7813   26.7919 N   0  0  0  0  0  0  0  0  0  0  0  0
   -5.4647  -13.2448   25.5845 C   0  0  0  0  0  0  0  0  0  0  0  0
   -5.8676  -14.6488   25.0686 C   0  0  0  0  0  0  0  0  0  0  0  0
   -5.1567  -14.9250   23.8622 O   0  0  0  0  0  0  0  0  0  0  0  0
   -6.0817  -13.6450   27.9136 C   0  0  0  0  0  0  0  0  0  0  0  0
   -5.2799  -13.5706   28.8045 O   0  0  0  0  0  0  0  0  0  0  0  0
   -7.0385  -14.7682   27.9891 C   0  0  0  0  0  0  0  0  0  0  0  0
   -8.3461  -14.9651   27.4807 C   0  0  0  0  0  0  0  0  0  0  0  0
   -8.8506  -16.1778   27.7499 N   0  0  0  0  0  0  0  0  0  0  0  0
   -7.8586  -16.7761   28.4357 N   0  0  0  0  0  0  0  0  0  0  0  0
   -6.7950  -15.9550   28.6600 C   0  0  0  0  0  0  0  0  0  0  0  0
   -4.0000   -8.8824   22.9684 C   0  0  0  0  0  0  0  0  0  0  0  0
   -3.1990   -9.0103   21.8461 C   0  0  0  0  0  0  0  0  0  0  0  0
   -2.0272   -8.4175   22.1968 N   0  0  0  0  0  0  0  0  0  0  0  0
   -0.7769   -8.6389   21.6839 C   0  0  0  0  0  0  0  0  0  0  0  0
    0.2517   -8.0219   22.2572 C   0  0  0  0  0  0  0  0  0  0  0  0
   -0.0589   -7.1039   23.3924 C   0  0  0  0  0  0  0  0  0  0  0  0
   -1.2395   -6.9074   23.8983 N   0  0  0  0  0  0  0  0  0  0  0  0
   -2.2446   -7.6538   23.3432 C   0  0  0  0  0  0  0  0  0  0  0  0
   -3.4139   -7.9870   23.8598 N   0  0  0  0  0  0  0  0  0  0  0  0
   -4.8509   -9.0680   25.1250 H   0  0  0  0  0  0  0  0  0  0  0  0
   -7.0640   -9.7927   26.0031 H   0  0  0  0  0  0  0  0  0  0  0  0
   -7.0726  -11.0530   24.7589 H   0  0  0  0  0  0  0  0  0  0  0  0
   -5.7813  -10.9157   27.3986 H   0  0  0  0  0  0  0  0  0  0  0  0
   -4.5827  -11.4145   26.3402 H   0  0  0  0  0  0  0  0  0  0  0  0
   -4.4046  -13.3405   25.8756 H   0  0  0  0  0  0  0  0  0  0  0  0
   -5.5482  -12.6234   24.6799 H   0  0  0  0  0  0  0  0  0  0  0  0
   -6.9390  -14.6864   24.8500 H   0  0  0  0  0  0  0  0  0  0  0  0
   -5.6103  -15.4304   25.7874 H   0  0  0  0  0  0  0  0  0  0  0  0
   -5.4338  -15.8133   23.5741 H   0  0  0  0  0  0  0  0  0  0  0  0
   -8.9468  -14.2670   26.9121 H   0  0  0  0  0  0  0  0  0  0  0  0
   -7.9384  -17.7559   28.7061 H   0  0  0  0  0  0  0  0  0  0  0  0
   -5.9385  -16.2992   29.2230 H   0  0  0  0  0  0  0  0  0  0  0  0
   -3.2982   -9.6373   20.9696 H   0  0  0  0  0  0  0  0  0  0  0  0
   -0.6839   -9.3405   20.8741 H   0  0  0  0  0  0  0  0  0  0  0  0
    1.2313   -8.2687   21.9306 H   0  0  0  0  0  0  0  0  0  0  0  0
    0.7795   -6.5556   23.8413 H   0  0  0  0  0  0  0  0  0  0  0  0
  1  2  2  0
  2  3  1  0
  3  4  1  0
  4  5  1  0
  5  6  1  0
  6  7  1  0
  7  8  1  0
  8  9  1  0
  6 10  1  0
 10 11  2  0
 10 12  1  0
 12 13  1  0
 13 14  2  0
 14 15  1  0
 15 16  1  0
  2 17  1  0
 17 18  2  0
 18 19  1  0
 19 20  1  0
 20 21  2  0
 21 22  1  0
 22 23  2  0
 23 24  1  0
 24 25  2  0
 16 12  2  0
 25 17  1  0
 24 19  1  0
  3 26  1  0
  4 27  1  0
  4 28  1  0
  5 29  1  0
  5 30  1  0
  7 31  1  0
  7 32  1  0
  8 33  1  0
  8 34  1  0
  9 35  1  0
 13 36  1  0
 15 37  1  0
 16 38  1  0
 18 39  1  0
 20 40  1  0
 21 41  1  0
 22 42  1  0
M  END
>  <Energy>  (1044) 
138.97923170351154

>  <compound_id>  (1044) 
25644

>  <target_id>  (1044) 
1

>  <reference_id>  (1044) 
123

>  <inspiration_ids>  (1044) 
[106, 123]

>  <energy_score>  (1044) 
44.506325653184206

>  <distance_score>  (1044) 
15.224754615338181

>  <path>  (1044) 
/opt/xchem-fragalysis-2/maxwin/BulkDock/SCRATCH/511017/C25644-P123/C25644-P123.minimised.mol

>  <scratch_subdir>  (1044) 
/opt/xchem-fragalysis-2/maxwin/BulkDock/SCRATCH/511017/C25644-P123

>  <fragmenstein_runtime>  (1044) 
44.424168825149536

>  <fragmenstein_outcome>  (1044) 
too moved

>  <fragmenstein_mode>  (1044) 
expansion

>  <fragmenstein_error>  (1044) 


$$$$
C25645-P106
     RDKit          3D

 42 44  0  0  0  0  0  0  0  0999 V2000
   -0.2529  -18.5487   18.7580 C   0  0  0  0  0  0  0  0  0  0  0  0
    1.2274  -18.7014   18.6031 N   0  0  0  0  0  0  0  0  0  0  0  0
    0.7900  -20.1928   18.3488 C   0  0  0  0  0  0  0  0  0  0  0  0
   -0.0157  -21.1795   19.4083 C   0  0  0  0  0  0  0  0  0  0  0  0
    0.1909  -22.5427   18.9966 O   0  0  0  0  0  0  0  0  0  0  0  0
    0.3714  -21.0395   20.9044 C   0  0  0  0  0  0  0  0  0  0  0  0
   -0.7017  -21.4111   21.8546 N   0  0  0  0  0  0  0  0  0  0  0  0
   -1.5731  -22.5519   21.8934 C   0  0  0  0  0  0  0  0  0  0  0  0
   -1.7078  -23.4554   21.1223 O   0  0  0  0  0  0  0  0  0  0  0  0
   -2.4709  -22.5734   23.0993 C   0  0  0  0  0  0  0  0  0  0  0  0
   -2.5067  -21.8358   24.3179 C   0  0  0  0  0  0  0  0  0  0  0  0
   -3.4991  -22.1901   25.1475 N   0  0  0  0  0  0  0  0  0  0  0  0
   -4.1081  -23.1896   24.4884 N   0  0  0  0  0  0  0  0  0  0  0  0
   -3.5389  -23.4488   23.2757 C   0  0  0  0  0  0  0  0  0  0  0  0
    1.8783  -17.4974   17.5295 C   0  0  0  0  0  0  0  0  0  0  0  0
    1.9668  -17.7144   16.3720 O   0  0  0  0  0  0  0  0  0  0  0  0
    2.6982  -15.7637   17.9448 C   0  0  0  0  0  0  0  0  0  0  0  0
    2.4027  -14.4937   18.3250 C   0  0  0  0  0  0  0  0  0  0  0  0
    3.5802  -13.7858   18.8617 N   0  0  0  0  0  0  0  0  0  0  0  0
    4.0103  -12.9692   20.2815 C   0  0  0  0  0  0  0  0  0  0  0  0
    5.1375  -12.3000   20.4958 C   0  0  0  0  0  0  0  0  0  0  0  0
    5.7119  -12.6450   19.3375 C   0  0  0  0  0  0  0  0  0  0  0  0
    5.7112  -13.9262   19.0912 N   0  0  0  0  0  0  0  0  0  0  0  0
    4.5994  -14.4310   18.4589 C   0  0  0  0  0  0  0  0  0  0  0  0
    4.1617  -15.4568   17.8339 N   0  0  0  0  0  0  0  0  0  0  0  0
   -0.3793  -17.7160   19.4569 H   0  0  0  0  0  0  0  0  0  0  0  0
   -0.8982  -18.5890   17.8889 H   0  0  0  0  0  0  0  0  0  0  0  0
   -0.7366  -19.1789   19.5051 H   0  0  0  0  0  0  0  0  0  0  0  0
    1.7697  -20.6781   18.2214 H   0  0  0  0  0  0  0  0  0  0  0  0
    0.3601  -20.2907   17.3372 H   0  0  0  0  0  0  0  0  0  0  0  0
   -1.0940  -21.0240   19.2774 H   0  0  0  0  0  0  0  0  0  0  0  0
   -0.3666  -23.0994   19.5809 H   0  0  0  0  0  0  0  0  0  0  0  0
    1.2270  -21.6805   21.1397 H   0  0  0  0  0  0  0  0  0  0  0  0
    0.6246  -20.0063   21.1426 H   0  0  0  0  0  0  0  0  0  0  0  0
   -0.9145  -20.8082   22.6345 H   0  0  0  0  0  0  0  0  0  0  0  0
   -1.8350  -21.0536   24.6450 H   0  0  0  0  0  0  0  0  0  0  0  0
   -4.9117  -23.6449   24.9118 H   0  0  0  0  0  0  0  0  0  0  0  0
   -3.9275  -24.2282   22.6340 H   0  0  0  0  0  0  0  0  0  0  0  0
    1.5073  -13.9793   18.0667 H   0  0  0  0  0  0  0  0  0  0  0  0
    3.3538  -13.1216   21.1102 H   0  0  0  0  0  0  0  0  0  0  0  0
    5.5123  -11.5443   21.1312 H   0  0  0  0  0  0  0  0  0  0  0  0
    5.8238  -11.7801   18.6793 H   0  0  0  0  0  0  0  0  0  0  0  0
  1  2  1  0
  2  3  1  0
  3  4  1  0
  4  5  1  0
  4  6  1  0
  6  7  1  0
  7  8  1  0
  8  9  2  0
  8 10  1  0
 10 11  1  0
 11 12  2  0
 12 13  1  0
 13 14  1  0
  2 15  1  0
 15 16  2  0
 15 17  1  0
 17 18  2  0
 18 19  1  0
 19 20  1  0
 20 21  2  0
 21 22  1  0
 22 23  2  0
 23 24  1  0
 24 25  2  0
 14 10  2  0
 25 17  1  0
 24 19  1  0
  1 26  1  0
  1 27  1  0
  1 28  1  0
  3 29  1  0
  3 30  1  0
  4 31  1  0
  5 32  1  0
  6 33  1  0
  6 34  1  0
  7 35  1  0
 11 36  1  0
 13 37  1  0
 14 38  1  0
 18 39  1  0
 20 40  1  0
 21 41  1  0
 22 42  1  0
M  END
>  <Energy>  (1045) 
466.94461027292789

>  <compound_id>  (1045) 
25645

>  <target_id>  (1045) 
1

>  <reference_id>  (1045) 
106

>  <inspiration_ids>  (1045) 
[106, 123]

>  <energy_score>  (1045) 
358.9077748004214

>  <distance_score>  (1045) 
14.729515393049232

>  <path>  (1045) 
/opt/xchem-fragalysis-2/maxwin/BulkDock/SCRATCH/511017/C25645-P106/C25645-P106.minimised.mol

>  <scratch_subdir>  (1045) 
/opt/xchem-fragalysis-2/maxwin/BulkDock/SCRATCH/511017/C25645-P106

>  <fragmenstein_runtime>  (1045) 
40.832200050354004

>  <fragmenstein_outcome>  (1045) 
too moved

>  <fragmenstein_mode>  (1045) 
expansion

>  <fragmenstein_error>  (1045) 


$$$$
C25645-P123
     RDKit          3D

 42 44  0  0  0  0  0  0  0  0999 V2000
   -2.7029  -15.1846   26.3176 C   0  0  0  0  0  0  0  0  0  0  0  0
   -2.4382  -15.0378   27.7581 N   0  0  0  0  0  0  0  0  0  0  0  0
   -3.0958  -16.5270   27.7928 C   0  0  0  0  0  0  0  0  0  0  0  0
   -4.5296  -17.2289   27.3082 C   0  0  0  0  0  0  0  0  0  0  0  0
   -4.6494  -17.2131   25.8813 O   0  0  0  0  0  0  0  0  0  0  0  0
   -4.5275  -18.7681   27.7423 C   0  0  0  0  0  0  0  0  0  0  0  0
   -5.6400  -19.7493   27.4919 N   0  0  0  0  0  0  0  0  0  0  0  0
   -7.0917  -19.6588   27.7631 C   0  0  0  0  0  0  0  0  0  0  0  0
   -7.7496  -18.7419   28.1763 O   0  0  0  0  0  0  0  0  0  0  0  0
   -8.0711  -21.2788   27.5555 C   0  0  0  0  0  0  0  0  0  0  0  0
   -9.8273  -21.6213   28.1694 C   0  0  0  0  0  0  0  0  0  0  0  0
  -10.1611  -22.8931   28.1229 N   0  0  0  0  0  0  0  0  0  0  0  0
   -8.9433  -23.3831   28.0870 N   0  0  0  0  0  0  0  0  0  0  0  0
   -7.7699  -22.6252   27.5885 C   0  0  0  0  0  0  0  0  0  0  0  0
   -1.0413  -14.5985   27.9781 C   0  0  0  0  0  0  0  0  0  0  0  0
   -0.0391  -15.2482   28.1473 O   0  0  0  0  0  0  0  0  0  0  0  0
   -0.6889  -13.0562   27.9628 C   0  0  0  0  0  0  0  0  0  0  0  0
    0.5892  -12.6201   28.3572 C   0  0  0  0  0  0  0  0  0  0  0  0
    0.6236  -11.2542   28.3068 N   0  0  0  0  0  0  0  0  0  0  0  0
    1.6211  -10.3506   28.7040 C   0  0  0  0  0  0  0  0  0  0  0  0
    1.4276   -9.0280   28.5762 C   0  0  0  0  0  0  0  0  0  0  0  0
    0.1027   -8.6581   27.9947 C   0  0  0  0  0  0  0  0  0  0  0  0
   -0.8173   -9.4901   27.5860 N   0  0  0  0  0  0  0  0  0  0  0  0
   -0.5987  -10.8430   27.7834 C   0  0  0  0  0  0  0  0  0  0  0  0
   -1.3803  -11.9028   27.5360 N   0  0  0  0  0  0  0  0  0  0  0  0
   -3.7656  -15.0496   26.0896 H   0  0  0  0  0  0  0  0  0  0  0  0
   -2.2344  -14.3087   25.8545 H   0  0  0  0  0  0  0  0  0  0  0  0
   -2.2158  -16.0273   25.8130 H   0  0  0  0  0  0  0  0  0  0  0  0
   -2.2824  -17.2079   27.4834 H   0  0  0  0  0  0  0  0  0  0  0  0
   -3.1203  -16.6701   28.8844 H   0  0  0  0  0  0  0  0  0  0  0  0
   -5.3707  -16.6859   27.7502 H   0  0  0  0  0  0  0  0  0  0  0  0
   -5.5392  -17.5613   25.6850 H   0  0  0  0  0  0  0  0  0  0  0  0
   -3.6556  -19.2406   27.2740 H   0  0  0  0  0  0  0  0  0  0  0  0
   -4.3755  -18.7997   28.8273 H   0  0  0  0  0  0  0  0  0  0  0  0
   -5.4100  -20.6998   27.2290 H   0  0  0  0  0  0  0  0  0  0  0  0
  -10.4396  -21.0146   28.8194 H   0  0  0  0  0  0  0  0  0  0  0  0
   -8.9249  -24.2691   28.5858 H   0  0  0  0  0  0  0  0  0  0  0  0
   -6.7947  -23.0804   27.5275 H   0  0  0  0  0  0  0  0  0  0  0  0
    1.4338  -13.1972   28.7076 H   0  0  0  0  0  0  0  0  0  0  0  0
    2.5152  -10.7732   29.1445 H   0  0  0  0  0  0  0  0  0  0  0  0
    2.1273   -8.2622   28.8781 H   0  0  0  0  0  0  0  0  0  0  0  0
   -0.0724   -7.5753   27.8781 H   0  0  0  0  0  0  0  0  0  0  0  0
  1  2  1  0
  2  3  1  0
  3  4  1  0
  4  5  1  0
  4  6  1  0
  6  7  1  0
  7  8  1  0
  8  9  2  0
  8 10  1  0
 10 11  1  0
 11 12  2  0
 12 13  1  0
 13 14  1  0
  2 15  1  0
 15 16  2  0
 15 17  1  0
 17 18  2  0
 18 19  1  0
 19 20  1  0
 20 21  2  0
 21 22  1  0
 22 23  2  0
 23 24  1  0
 24 25  2  0
 14 10  2  0
 25 17  1  0
 24 19  1  0
  1 26  1  0
  1 27  1  0
  1 28  1  0
  3 29  1  0
  3 30  1  0
  4 31  1  0
  5 32  1  0
  6 33  1  0
  6 34  1  0
  7 35  1  0
 11 36  1  0
 13 37  1  0
 14 38  1  0
 18 39  1  0
 20 40  1  0
 21 41  1  0
 22 42  1  0
M  END
>  <Energy>  (1046) 
303.77695253311191

>  <compound_id>  (1046) 
25645

>  <target_id>  (1046) 
1

>  <reference_id>  (1046) 
123

>  <inspiration_ids>  (1046) 
[106, 123]

>  <energy_score>  (1046) 
195.7401170606018

>  <distance_score>  (1046) 
15.221811027212256

>  <path>  (1046) 
/opt/xchem-fragalysis-2/maxwin/BulkDock/SCRATCH/511017/C25645-P123/C25645-P123.minimised.mol

>  <scratch_subdir>  (1046) 
/opt/xchem-fragalysis-2/maxwin/BulkDock/SCRATCH/511017/C25645-P123

>  <fragmenstein_runtime>  (1046) 
67.08701944351196

>  <fragmenstein_outcome>  (1046) 
too moved

>  <fragmenstein_mode>  (1046) 
expansion

>  <fragmenstein_error>  (1046) 


$$$$
C25646-P106
     RDKit          3D

 39 41  0  0  0  0  0  0  0  0999 V2000
    0.2238  -19.2455   18.5772 O   0  0  0  0  0  0  0  0  0  0  0  0
    0.2643  -20.4393   18.5935 C   0  0  0  0  0  0  0  0  0  0  0  0
    1.0913  -21.3608   17.8523 N   0  0  0  0  0  0  0  0  0  0  0  0
    2.2248  -21.1204   16.9060 C   0  0  0  0  0  0  0  0  0  0  0  0
    2.2174  -19.9173   15.8891 C   0  0  0  0  0  0  0  0  0  0  0  0
    2.0368  -18.6996   16.5583 O   0  0  0  0  0  0  0  0  0  0  0  0
    3.5899  -19.7983   14.9705 C   0  0  0  0  0  0  0  0  0  0  0  0
    4.3345  -18.4926   14.6332 N   0  0  0  0  0  0  0  0  0  0  0  0
    5.3368  -18.1890   13.5740 C   0  0  0  0  0  0  0  0  0  0  0  0
    5.7487  -18.8684   12.6751 O   0  0  0  0  0  0  0  0  0  0  0  0
    6.0322  -16.7674   13.5878 C   0  0  0  0  0  0  0  0  0  0  0  0
    5.9615  -15.7994   12.5758 C   0  0  0  0  0  0  0  0  0  0  0  0
    6.9040  -14.8159   12.8389 N   0  0  0  0  0  0  0  0  0  0  0  0
    7.1295  -13.5668   12.2490 C   0  0  0  0  0  0  0  0  0  0  0  0
    8.1088  -12.7680   12.7065 C   0  0  0  0  0  0  0  0  0  0  0  0
    8.9234  -13.3587   13.8003 C   0  0  0  0  0  0  0  0  0  0  0  0
    8.7306  -14.5206   14.3527 N   0  0  0  0  0  0  0  0  0  0  0  0
    7.6579  -15.2625   13.9176 C   0  0  0  0  0  0  0  0  0  0  0  0
    7.0747  -16.3456   14.4452 N   0  0  0  0  0  0  0  0  0  0  0  0
   -0.6297  -21.0958   19.6235 C   0  0  0  0  0  0  0  0  0  0  0  0
   -1.4277  -20.4085   20.6081 C   0  0  0  0  0  0  0  0  0  0  0  0
   -2.1229  -21.2159   21.4219 N   0  0  0  0  0  0  0  0  0  0  0  0
   -1.7853  -22.4382   20.9880 N   0  0  0  0  0  0  0  0  0  0  0  0
   -0.9103  -22.4221   19.9247 C   0  0  0  0  0  0  0  0  0  0  0  0
    0.9134  -22.2998   18.1803 H   0  0  0  0  0  0  0  0  0  0  0  0
    3.0960  -21.0226   17.5573 H   0  0  0  0  0  0  0  0  0  0  0  0
    2.3431  -22.0525   16.3428 H   0  0  0  0  0  0  0  0  0  0  0  0
    1.3719  -20.0398   15.2032 H   0  0  0  0  0  0  0  0  0  0  0  0
    1.5300  -18.8469   17.3844 H   0  0  0  0  0  0  0  0  0  0  0  0
    3.3856  -20.2834   14.0083 H   0  0  0  0  0  0  0  0  0  0  0  0
    4.3548  -20.4262   15.4430 H   0  0  0  0  0  0  0  0  0  0  0  0
    4.1657  -17.6572   15.1809 H   0  0  0  0  0  0  0  0  0  0  0  0
    5.3426  -15.7537   11.6907 H   0  0  0  0  0  0  0  0  0  0  0  0
    6.4742  -13.2851   11.4339 H   0  0  0  0  0  0  0  0  0  0  0  0
    8.3485  -11.7910   12.3138 H   0  0  0  0  0  0  0  0  0  0  0  0
    9.7682  -12.7393   14.1454 H   0  0  0  0  0  0  0  0  0  0  0  0
   -1.4994  -19.3345   20.7403 H   0  0  0  0  0  0  0  0  0  0  0  0
   -2.1884  -23.2436   21.4557 H   0  0  0  0  0  0  0  0  0  0  0  0
   -0.5749  -23.3534   19.4942 H   0  0  0  0  0  0  0  0  0  0  0  0
  1  2  2  0
  2  3  1  0
  3  4  1  0
  4  5  1  0
  5  6  1  0
  5  7  1  0
  7  8  1  0
  8  9  1  0
  9 10  2  0
  9 11  1  0
 11 12  2  0
 12 13  1  0
 13 14  1  0
 14 15  2  0
 15 16  1  0
 16 17  2  0
 17 18  1  0
 18 19  2  0
  2 20  1  0
 20 21  1  0
 21 22  2  0
 22 23  1  0
 23 24  1  0
 19 11  1  0
 24 20  2  0
 18 13  1  0
  3 25  1  0
  4 26  1  0
  4 27  1  0
  5 28  1  0
  6 29  1  0
  7 30  1  0
  7 31  1  0
  8 32  1  0
 12 33  1  0
 14 34  1  0
 15 35  1  0
 16 36  1  0
 21 37  1  0
 23 38  1  0
 24 39  1  0
M  END
>  <Energy>  (1047) 
100.35838954279804

>  <compound_id>  (1047) 
25646

>  <target_id>  (1047) 
1

>  <reference_id>  (1047) 
106

>  <inspiration_ids>  (1047) 
[106, 123]

>  <energy_score>  (1047) 
9.750786660194535

>  <distance_score>  (1047) 
16.217379442565196

>  <path>  (1047) 
/opt/xchem-fragalysis-2/maxwin/BulkDock/SCRATCH/511017/C25646-P106/C25646-P106.minimised.mol

>  <scratch_subdir>  (1047) 
/opt/xchem-fragalysis-2/maxwin/BulkDock/SCRATCH/511017/C25646-P106

>  <fragmenstein_runtime>  (1047) 
39.1290237903595

>  <fragmenstein_outcome>  (1047) 
too moved

>  <fragmenstein_mode>  (1047) 
expansion

>  <fragmenstein_error>  (1047) 


$$$$
C25646-P123
     RDKit          3D

 39 41  0  0  0  0  0  0  0  0999 V2000
   -7.1485  -12.0355   17.5625 O   0  0  0  0  0  0  0  0  0  0  0  0
   -6.7591  -11.2829   18.4062 C   0  0  0  0  0  0  0  0  0  0  0  0
   -6.2617   -9.9225   18.3021 N   0  0  0  0  0  0  0  0  0  0  0  0
   -6.1722   -9.0034   17.1333 C   0  0  0  0  0  0  0  0  0  0  0  0
   -4.8717   -8.1499   16.9377 C   0  0  0  0  0  0  0  0  0  0  0  0
   -4.6881   -7.3517   18.1165 O   0  0  0  0  0  0  0  0  0  0  0  0
   -4.9403   -7.1525   15.6275 C   0  0  0  0  0  0  0  0  0  0  0  0
   -3.7795   -6.2383   15.2248 N   0  0  0  0  0  0  0  0  0  0  0  0
   -3.0437   -6.1152   13.9500 C   0  0  0  0  0  0  0  0  0  0  0  0
   -3.2264   -6.6462   12.8917 O   0  0  0  0  0  0  0  0  0  0  0  0
   -1.7554   -5.2338   14.0089 C   0  0  0  0  0  0  0  0  0  0  0  0
   -0.5513   -5.5759   13.3812 C   0  0  0  0  0  0  0  0  0  0  0  0
    0.3925   -4.6329   13.7255 N   0  0  0  0  0  0  0  0  0  0  0  0
    1.7689   -4.5861   13.4809 C   0  0  0  0  0  0  0  0  0  0  0  0
    2.5003   -3.5704   13.9659 C   0  0  0  0  0  0  0  0  0  0  0  0
    1.7155   -2.5515   14.7181 C   0  0  0  0  0  0  0  0  0  0  0  0
    0.4346   -2.5762   14.9514 N   0  0  0  0  0  0  0  0  0  0  0  0
   -0.2681   -3.6585   14.4704 C   0  0  0  0  0  0  0  0  0  0  0  0
   -1.5295   -4.0422   14.7076 N   0  0  0  0  0  0  0  0  0  0  0  0
   -6.9055  -11.8239   19.8110 C   0  0  0  0  0  0  0  0  0  0  0  0
   -7.3654  -13.1511   20.1495 C   0  0  0  0  0  0  0  0  0  0  0  0
   -7.4391  -13.3936   21.4650 N   0  0  0  0  0  0  0  0  0  0  0  0
   -7.0791  -12.2223   22.0037 N   0  0  0  0  0  0  0  0  0  0  0  0
   -6.7247  -11.2733   21.0700 C   0  0  0  0  0  0  0  0  0  0  0  0
   -6.0978   -9.5586   19.2316 H   0  0  0  0  0  0  0  0  0  0  0  0
   -6.3504   -9.6073   16.2372 H   0  0  0  0  0  0  0  0  0  0  0  0
   -7.0233   -8.3232   17.2518 H   0  0  0  0  0  0  0  0  0  0  0  0
   -4.0208   -8.8268   16.8522 H   0  0  0  0  0  0  0  0  0  0  0  0
   -3.9741   -6.7184   17.9368 H   0  0  0  0  0  0  0  0  0  0  0  0
   -5.1616   -7.7665   14.7481 H   0  0  0  0  0  0  0  0  0  0  0  0
   -5.7761   -6.4629   15.7903 H   0  0  0  0  0  0  0  0  0  0  0  0
   -3.4005   -5.5804   15.8900 H   0  0  0  0  0  0  0  0  0  0  0  0
   -0.3006   -6.4284   12.7645 H   0  0  0  0  0  0  0  0  0  0  0  0
    2.1923   -5.3984   12.9034 H   0  0  0  0  0  0  0  0  0  0  0  0
    3.5649   -3.4481   13.8308 H   0  0  0  0  0  0  0  0  0  0  0  0
    2.3036   -1.6995   15.0984 H   0  0  0  0  0  0  0  0  0  0  0  0
   -7.6378  -13.9364   19.4528 H   0  0  0  0  0  0  0  0  0  0  0  0
   -7.0852  -12.1349   23.0149 H   0  0  0  0  0  0  0  0  0  0  0  0
   -6.4071  -10.2930   21.3930 H   0  0  0  0  0  0  0  0  0  0  0  0
  1  2  2  0
  2  3  1  0
  3  4  1  0
  4  5  1  0
  5  6  1  0
  5  7  1  0
  7  8  1  0
  8  9  1  0
  9 10  2  0
  9 11  1  0
 11 12  2  0
 12 13  1  0
 13 14  1  0
 14 15  2  0
 15 16  1  0
 16 17  2  0
 17 18  1  0
 18 19  2  0
  2 20  1  0
 20 21  1  0
 21 22  2  0
 22 23  1  0
 23 24  1  0
 19 11  1  0
 24 20  2  0
 18 13  1  0
  3 25  1  0
  4 26  1  0
  4 27  1  0
  5 28  1  0
  6 29  1  0
  7 30  1  0
  7 31  1  0
  8 32  1  0
 12 33  1  0
 14 34  1  0
 15 35  1  0
 16 36  1  0
 21 37  1  0
 23 38  1  0
 24 39  1  0
M  END
>  <Energy>  (1048) 
80.458010943360705

>  <compound_id>  (1048) 
25646

>  <target_id>  (1048) 
1

>  <reference_id>  (1048) 
123

>  <inspiration_ids>  (1048) 
[106, 123]

>  <energy_score>  (1048) 
-10.149591939240963

>  <distance_score>  (1048) 
15.829434931512418

>  <path>  (1048) 
/opt/xchem-fragalysis-2/maxwin/BulkDock/SCRATCH/511017/C25646-P123/C25646-P123.minimised.mol

>  <scratch_subdir>  (1048) 
/opt/xchem-fragalysis-2/maxwin/BulkDock/SCRATCH/511017/C25646-P123

>  <fragmenstein_runtime>  (1048) 
35.04905390739441

>  <fragmenstein_outcome>  (1048) 
too moved

>  <fragmenstein_mode>  (1048) 
expansion

>  <fragmenstein_error>  (1048) 


$$$$
C25647-P106
     RDKit          3D

 41 43  0  0  0  0  0  0  0  0999 V2000
   -1.6090   -8.7254   21.8687 C   0  0  0  0  0  0  0  0  0  0  0  0
   -2.4715   -9.2236   20.7197 C   0  0  0  0  0  0  0  0  0  0  0  0
   -1.6043   -9.3900   19.5362 N   0  0  0  0  0  0  0  0  0  0  0  0
   -1.8140  -10.9887   19.9201 C   0  0  0  0  0  0  0  0  0  0  0  0
   -1.1284  -11.4918   21.4445 C   0  0  0  0  0  0  0  0  0  0  0  0
   -0.2818  -12.8888   22.6130 N   0  0  0  0  0  0  0  0  0  0  0  0
   -0.6346  -14.6883   22.7745 C   0  0  0  0  0  0  0  0  0  0  0  0
   -1.4144  -15.3018   22.0623 O   0  0  0  0  0  0  0  0  0  0  0  0
   -0.1676  -15.5438   23.8107 C   0  0  0  0  0  0  0  0  0  0  0  0
   -0.7801  -15.4298   25.1505 C   0  0  0  0  0  0  0  0  0  0  0  0
   -1.1234  -16.5893   25.7291 N   0  0  0  0  0  0  0  0  0  0  0  0
   -0.8055  -17.5019   24.7989 N   0  0  0  0  0  0  0  0  0  0  0  0
   -0.2612  -16.9565   23.6594 C   0  0  0  0  0  0  0  0  0  0  0  0
   -1.8718   -9.1628   18.1083 C   0  0  0  0  0  0  0  0  0  0  0  0
   -2.9001   -8.8698   17.5403 O   0  0  0  0  0  0  0  0  0  0  0  0
   -0.5962   -9.1708   17.0746 C   0  0  0  0  0  0  0  0  0  0  0  0
   -0.8201   -8.9865   15.5784 C   0  0  0  0  0  0  0  0  0  0  0  0
    0.0488   -8.7752   14.6220 N   0  0  0  0  0  0  0  0  0  0  0  0
    1.3642   -8.7086   14.9718 C   0  0  0  0  0  0  0  0  0  0  0  0
    2.4426   -8.5247   14.2313 N   0  0  0  0  0  0  0  0  0  0  0  0
    3.5115   -8.6218   15.0837 C   0  0  0  0  0  0  0  0  0  0  0  0
    3.0780   -8.8420   16.3684 C   0  0  0  0  0  0  0  0  0  0  0  0
    1.7021   -8.8257   16.3032 N   0  0  0  0  0  0  0  0  0  0  0  0
    0.7278   -8.9261   17.3038 C   0  0  0  0  0  0  0  0  0  0  0  0
   -2.2142   -8.1714   22.5682 H   0  0  0  0  0  0  0  0  0  0  0  0
   -1.1673   -9.4975   22.4483 H   0  0  0  0  0  0  0  0  0  0  0  0
   -0.7262   -8.1757   21.5454 H   0  0  0  0  0  0  0  0  0  0  0  0
   -3.1906   -9.9567   21.1008 H   0  0  0  0  0  0  0  0  0  0  0  0
   -3.0607   -8.3524   20.4656 H   0  0  0  0  0  0  0  0  0  0  0  0
   -2.8859  -11.2602   19.8482 H   0  0  0  0  0  0  0  0  0  0  0  0
   -1.4317  -11.5728   19.0739 H   0  0  0  0  0  0  0  0  0  0  0  0
   -0.2922  -10.7653   21.4457 H   0  0  0  0  0  0  0  0  0  0  0  0
   -1.4718  -12.3851   20.9018 H   0  0  0  0  0  0  0  0  0  0  0  0
    0.3084  -12.6040   23.3497 H   0  0  0  0  0  0  0  0  0  0  0  0
   -1.0541  -14.5140   25.6517 H   0  0  0  0  0  0  0  0  0  0  0  0
   -1.0211  -18.4766   24.9818 H   0  0  0  0  0  0  0  0  0  0  0  0
   -0.1348  -17.5697   22.7774 H   0  0  0  0  0  0  0  0  0  0  0  0
   -1.8810   -9.0301   15.2766 H   0  0  0  0  0  0  0  0  0  0  0  0
    4.5295   -8.5421   14.7250 H   0  0  0  0  0  0  0  0  0  0  0  0
    3.6097   -8.9837   17.2946 H   0  0  0  0  0  0  0  0  0  0  0  0
    1.1386   -8.8176   18.2958 H   0  0  0  0  0  0  0  0  0  0  0  0
  1  2  1  0
  2  3  1  0
  3  4  1  0
  4  5  1  0
  5  6  1  0
  6  7  1  0
  7  8  2  0
  7  9  1  0
  9 10  1  0
 10 11  2  0
 11 12  1  0
 12 13  1  0
  3 14  1  0
 14 15  2  0
 14 16  1  0
 16 17  1  0
 17 18  2  0
 18 19  1  0
 19 20  2  0
 20 21  1  0
 21 22  2  0
 22 23  1  0
 23 24  1  0
 13  9  2  0
 24 16  2  0
 23 19  1  0
  1 25  1  0
  1 26  1  0
  1 27  1  0
  2 28  1  0
  2 29  1  0
  4 30  1  0
  4 31  1  0
  5 32  1  0
  5 33  1  0
  6 34  1  0
 10 35  1  0
 12 36  1  0
 13 37  1  0
 17 38  1  0
 21 39  1  0
 22 40  1  0
 24 41  1  0
M  END
>  <Energy>  (1049) 
381.05968306028728

>  <compound_id>  (1049) 
25647

>  <target_id>  (1049) 
1

>  <reference_id>  (1049) 
106

>  <inspiration_ids>  (1049) 
[106, 123]

>  <energy_score>  (1049) 
329.2828519249575

>  <distance_score>  (1049) 
15.72015443016952

>  <path>  (1049) 
/opt/xchem-fragalysis-2/maxwin/BulkDock/SCRATCH/511017/C25647-P106/C25647-P106.minimised.mol

>  <scratch_subdir>  (1049) 
/opt/xchem-fragalysis-2/maxwin/BulkDock/SCRATCH/511017/C25647-P106

>  <fragmenstein_runtime>  (1049) 
49.13486075401306

>  <fragmenstein_outcome>  (1049) 
too moved

>  <fragmenstein_mode>  (1049) 
expansion

>  <fragmenstein_error>  (1049) 


$$$$
C25647-P123
     RDKit          3D

 41 43  0  0  0  0  0  0  0  0999 V2000
    6.2574  -17.8756   21.0286 C   0  0  0  0  0  0  0  0  0  0  0  0
    5.8046  -17.2165   19.7144 C   0  0  0  0  0  0  0  0  0  0  0  0
    6.2121  -15.7955   19.3965 N   0  0  0  0  0  0  0  0  0  0  0  0
    5.0176  -15.4786   20.3645 C   0  0  0  0  0  0  0  0  0  0  0  0
    3.4964  -15.7623   20.0163 C   0  0  0  0  0  0  0  0  0  0  0  0
    2.6204  -16.3687   21.0480 N   0  0  0  0  0  0  0  0  0  0  0  0
    2.3051  -17.7522   21.3308 C   0  0  0  0  0  0  0  0  0  0  0  0
    2.7345  -18.7614   20.8540 O   0  0  0  0  0  0  0  0  0  0  0  0
    1.1762  -17.9557   22.3201 C   0  0  0  0  0  0  0  0  0  0  0  0
    0.1010  -17.1376   22.7770 C   0  0  0  0  0  0  0  0  0  0  0  0
   -0.7583  -17.7546   23.6045 N   0  0  0  0  0  0  0  0  0  0  0  0
   -0.2492  -18.9914   23.7103 N   0  0  0  0  0  0  0  0  0  0  0  0
    0.8800  -19.1623   22.9588 C   0  0  0  0  0  0  0  0  0  0  0  0
    7.3819  -15.0442   19.7828 C   0  0  0  0  0  0  0  0  0  0  0  0
    8.2842  -15.3312   20.5313 O   0  0  0  0  0  0  0  0  0  0  0  0
    7.6231  -13.6952   19.0720 C   0  0  0  0  0  0  0  0  0  0  0  0
    8.8819  -12.9058   19.4377 C   0  0  0  0  0  0  0  0  0  0  0  0
    9.4573  -11.9327   18.7934 N   0  0  0  0  0  0  0  0  0  0  0  0
    8.8930  -11.6136   17.5996 C   0  0  0  0  0  0  0  0  0  0  0  0
    9.3910  -10.9016   16.6114 N   0  0  0  0  0  0  0  0  0  0  0  0
    8.4269  -10.8810   15.6415 C   0  0  0  0  0  0  0  0  0  0  0  0
    7.3343  -11.6240   16.0211 C   0  0  0  0  0  0  0  0  0  0  0  0
    7.6658  -12.1637   17.2383 N   0  0  0  0  0  0  0  0  0  0  0  0
    7.0418  -13.1928   17.9643 C   0  0  0  0  0  0  0  0  0  0  0  0
    5.5939  -17.6539   21.8688 H   0  0  0  0  0  0  0  0  0  0  0  0
    6.2497  -18.9650   20.9087 H   0  0  0  0  0  0  0  0  0  0  0  0
    7.2743  -17.5811   21.3006 H   0  0  0  0  0  0  0  0  0  0  0  0
    6.4477  -17.7338   18.9820 H   0  0  0  0  0  0  0  0  0  0  0  0
    4.8300  -17.5587   19.3587 H   0  0  0  0  0  0  0  0  0  0  0  0
    5.0530  -14.3772   20.3690 H   0  0  0  0  0  0  0  0  0  0  0  0
    5.2612  -15.7054   21.4093 H   0  0  0  0  0  0  0  0  0  0  0  0
    3.3682  -16.3365   19.0941 H   0  0  0  0  0  0  0  0  0  0  0  0
    3.0419  -14.7964   19.8071 H   0  0  0  0  0  0  0  0  0  0  0  0
    2.0006  -15.7700   21.5881 H   0  0  0  0  0  0  0  0  0  0  0  0
   -0.0944  -16.1036   22.5307 H   0  0  0  0  0  0  0  0  0  0  0  0
   -0.7269  -19.6692   24.2963 H   0  0  0  0  0  0  0  0  0  0  0  0
    1.3815  -20.1196   22.9182 H   0  0  0  0  0  0  0  0  0  0  0  0
    9.3495  -13.2115   20.3897 H   0  0  0  0  0  0  0  0  0  0  0  0
    8.5653  -10.3190   14.7283 H   0  0  0  0  0  0  0  0  0  0  0  0
    6.4013  -11.8436   15.5253 H   0  0  0  0  0  0  0  0  0  0  0  0
    6.1731  -13.6450   17.5041 H   0  0  0  0  0  0  0  0  0  0  0  0
  1  2  1  0
  2  3  1  0
  3  4  1  0
  4  5  1  0
  5  6  1  0
  6  7  1  0
  7  8  2  0
  7  9  1  0
  9 10  1  0
 10 11  2  0
 11 12  1  0
 12 13  1  0
  3 14  1  0
 14 15  2  0
 14 16  1  0
 16 17  1  0
 17 18  2  0
 18 19  1  0
 19 20  2  0
 20 21  1  0
 21 22  2  0
 22 23  1  0
 23 24  1  0
 13  9  2  0
 24 16  2  0
 23 19  1  0
  1 25  1  0
  1 26  1  0
  1 27  1  0
  2 28  1  0
  2 29  1  0
  4 30  1  0
  4 31  1  0
  5 32  1  0
  5 33  1  0
  6 34  1  0
 10 35  1  0
 12 36  1  0
 13 37  1  0
 17 38  1  0
 21 39  1  0
 22 40  1  0
 24 41  1  0
M  END
>  <Energy>  (1050) 
111.57432863995672

>  <compound_id>  (1050) 
25647

>  <target_id>  (1050) 
1

>  <reference_id>  (1050) 
123

>  <inspiration_ids>  (1050) 
[106, 123]

>  <energy_score>  (1050) 
59.79749750462429

>  <distance_score>  (1050) 
15.45319511827742

>  <path>  (1050) 
/opt/xchem-fragalysis-2/maxwin/BulkDock/SCRATCH/511017/C25647-P123/C25647-P123.minimised.mol

>  <scratch_subdir>  (1050) 
/opt/xchem-fragalysis-2/maxwin/BulkDock/SCRATCH/511017/C25647-P123

>  <fragmenstein_runtime>  (1050) 
33.49750900268555

>  <fragmenstein_outcome>  (1050) 
too moved

>  <fragmenstein_mode>  (1050) 
expansion

>  <fragmenstein_error>  (1050) 


$$$$
C25648-P106
     RDKit          3D

 42 45  0  0  0  0  0  0  0  0999 V2000
   -1.2247  -17.4857   16.6527 O   0  0  0  0  0  0  0  0  0  0  0  0
   -0.6289  -17.1935   17.6472 C   0  0  0  0  0  0  0  0  0  0  0  0
    0.5890  -16.4347   17.8265 N   0  0  0  0  0  0  0  0  0  0  0  0
    1.5430  -15.8591   16.8292 C   0  0  0  0  0  0  0  0  0  0  0  0
    1.0610  -14.8527   15.7003 C   0  0  0  0  0  0  0  0  0  0  0  0
    2.0896  -13.8426   15.2194 N   0  0  0  0  0  0  0  0  0  0  0  0
    2.2063  -13.1329   13.9621 C   0  0  0  0  0  0  0  0  0  0  0  0
    1.5657  -13.2217   12.9515 O   0  0  0  0  0  0  0  0  0  0  0  0
    3.2421  -11.9973   13.9028 C   0  0  0  0  0  0  0  0  0  0  0  0
    2.7856  -10.5968   13.5292 C   0  0  0  0  0  0  0  0  0  0  0  0
    3.5010   -9.5814   13.1365 N   0  0  0  0  0  0  0  0  0  0  0  0
    4.8385   -9.8021   13.0304 C   0  0  0  0  0  0  0  0  0  0  0  0
    5.7846   -8.9723   12.6410 N   0  0  0  0  0  0  0  0  0  0  0  0
    6.9258   -9.7156   12.5954 C   0  0  0  0  0  0  0  0  0  0  0  0
    6.7228  -10.9737   13.1116 C   0  0  0  0  0  0  0  0  0  0  0  0
    5.3719  -11.0475   13.3636 N   0  0  0  0  0  0  0  0  0  0  0  0
    4.5797  -12.1336   13.7737 C   0  0  0  0  0  0  0  0  0  0  0  0
   -0.1860  -14.1087   16.1252 C   0  0  0  0  0  0  0  0  0  0  0  0
   -0.9746  -13.2370   15.1723 C   0  0  0  0  0  0  0  0  0  0  0  0
   -1.5431  -14.5472   15.6243 C   0  0  0  0  0  0  0  0  0  0  0  0
   -1.2457  -17.6629   18.9523 C   0  0  0  0  0  0  0  0  0  0  0  0
   -2.5529  -18.2385   19.1350 C   0  0  0  0  0  0  0  0  0  0  0  0
   -2.8447  -18.5696   20.4018 N   0  0  0  0  0  0  0  0  0  0  0  0
   -1.7282  -18.2400   21.0638 N   0  0  0  0  0  0  0  0  0  0  0  0
   -0.7597  -17.6974   20.2526 C   0  0  0  0  0  0  0  0  0  0  0  0
    0.8492  -16.4549   18.8036 H   0  0  0  0  0  0  0  0  0  0  0  0
    2.3014  -15.3486   17.4351 H   0  0  0  0  0  0  0  0  0  0  0  0
    2.0441  -16.7068   16.3484 H   0  0  0  0  0  0  0  0  0  0  0  0
    0.8182  -15.4472   14.8104 H   0  0  0  0  0  0  0  0  0  0  0  0
    2.7475  -13.4508   15.8819 H   0  0  0  0  0  0  0  0  0  0  0  0
    1.6932  -10.4502   13.5977 H   0  0  0  0  0  0  0  0  0  0  0  0
    7.8218   -9.3084   12.1574 H   0  0  0  0  0  0  0  0  0  0  0  0
    7.3761  -11.8245   13.2363 H   0  0  0  0  0  0  0  0  0  0  0  0
    5.0816  -13.0862   13.8772 H   0  0  0  0  0  0  0  0  0  0  0  0
   -0.1516  -13.8139   17.1638 H   0  0  0  0  0  0  0  0  0  0  0  0
   -0.6852  -13.1703   14.1302 H   0  0  0  0  0  0  0  0  0  0  0  0
   -1.4284  -12.3322   15.5605 H   0  0  0  0  0  0  0  0  0  0  0  0
   -2.3724  -14.5331   16.3228 H   0  0  0  0  0  0  0  0  0  0  0  0
   -1.6010  -15.3524   14.8990 H   0  0  0  0  0  0  0  0  0  0  0  0
   -3.2932  -18.4165   18.3636 H   0  0  0  0  0  0  0  0  0  0  0  0
   -1.6864  -18.4060   22.0645 H   0  0  0  0  0  0  0  0  0  0  0  0
    0.1822  -17.3998   20.6845 H   0  0  0  0  0  0  0  0  0  0  0  0
  1  2  2  0
  2  3  1  0
  3  4  1  0
  4  5  1  0
  5  6  1  0
  6  7  1  0
  7  8  2  0
  7  9  1  0
  9 10  1  0
 10 11  2  0
 11 12  1  0
 12 13  2  0
 13 14  1  0
 14 15  2  0
 15 16  1  0
 16 17  1  0
  5 18  1  0
 18 19  1  0
 19 20  1  0
  2 21  1  0
 21 22  1  0
 22 23  2  0
 23 24  1  0
 24 25  1  0
 17  9  2  0
 20 18  1  0
 25 21  2  0
 16 12  1  0
  3 26  1  0
  4 27  1  0
  4 28  1  0
  5 29  1  0
  6 30  1  0
 10 31  1  0
 14 32  1  0
 15 33  1  0
 17 34  1  0
 18 35  1  0
 19 36  1  0
 19 37  1  0
 20 38  1  0
 20 39  1  0
 22 40  1  0
 24 41  1  0
 25 42  1  0
M  END
>  <Energy>  (1051) 
52.162054860539385

>  <compound_id>  (1051) 
25648

>  <target_id>  (1051) 
1

>  <reference_id>  (1051) 
106

>  <inspiration_ids>  (1051) 
[106, 123]

>  <energy_score>  (1051) 
-2.8052071292524943

>  <distance_score>  (1051) 
16.058696153412175

>  <path>  (1051) 
/opt/xchem-fragalysis-2/maxwin/BulkDock/SCRATCH/511017/C25648-P106/C25648-P106.minimised.mol

>  <scratch_subdir>  (1051) 
/opt/xchem-fragalysis-2/maxwin/BulkDock/SCRATCH/511017/C25648-P106

>  <fragmenstein_runtime>  (1051) 
46.288429498672485

>  <fragmenstein_outcome>  (1051) 
too moved

>  <fragmenstein_mode>  (1051) 
expansion

>  <fragmenstein_error>  (1051) 


$$$$
C25648-P123
     RDKit          3D

 42 45  0  0  0  0  0  0  0  0999 V2000
   -2.5482  -13.1032   21.1542 O   0  0  0  0  0  0  0  0  0  0  0  0
   -3.6461  -12.6727   20.9629 C   0  0  0  0  0  0  0  0  0  0  0  0
   -4.0859  -11.5232   20.2111 N   0  0  0  0  0  0  0  0  0  0  0  0
   -3.3075  -10.4478   19.5138 C   0  0  0  0  0  0  0  0  0  0  0  0
   -2.7524  -10.7886   18.0854 C   0  0  0  0  0  0  0  0  0  0  0  0
   -1.6943   -9.9005   17.5081 N   0  0  0  0  0  0  0  0  0  0  0  0
   -1.7572   -8.9024   16.4559 C   0  0  0  0  0  0  0  0  0  0  0  0
   -2.6930   -8.4780   15.8353 O   0  0  0  0  0  0  0  0  0  0  0  0
   -0.3776   -8.3594   15.9672 C   0  0  0  0  0  0  0  0  0  0  0  0
   -0.3069   -7.3034   14.8634 C   0  0  0  0  0  0  0  0  0  0  0  0
    0.7340   -6.8894   14.1911 N   0  0  0  0  0  0  0  0  0  0  0  0
    1.9097   -7.5146   14.4678 C   0  0  0  0  0  0  0  0  0  0  0  0
    3.0782   -7.4413   13.8663 N   0  0  0  0  0  0  0  0  0  0  0  0
    3.9184   -8.2820   14.5529 C   0  0  0  0  0  0  0  0  0  0  0  0
    3.2643   -8.8598   15.6093 C   0  0  0  0  0  0  0  0  0  0  0  0
    1.9750   -8.4012   15.5275 N   0  0  0  0  0  0  0  0  0  0  0  0
    0.8708   -8.7421   16.3012 C   0  0  0  0  0  0  0  0  0  0  0  0
   -3.8757  -10.9765   17.0983 C   0  0  0  0  0  0  0  0  0  0  0  0
   -4.5650  -12.3116   16.9464 C   0  0  0  0  0  0  0  0  0  0  0  0
   -3.6673  -11.8053   15.8532 C   0  0  0  0  0  0  0  0  0  0  0  0
   -4.7252  -13.4207   21.7095 C   0  0  0  0  0  0  0  0  0  0  0  0
   -6.0972  -13.1834   22.0021 C   0  0  0  0  0  0  0  0  0  0  0  0
   -6.6620  -14.1114   22.7920 N   0  0  0  0  0  0  0  0  0  0  0  0
   -5.6661  -14.9793   23.0216 N   0  0  0  0  0  0  0  0  0  0  0  0
   -4.5036  -14.6134   22.4071 C   0  0  0  0  0  0  0  0  0  0  0  0
   -5.0973  -11.5068   20.1948 H   0  0  0  0  0  0  0  0  0  0  0  0
   -2.4606  -10.2174   20.1697 H   0  0  0  0  0  0  0  0  0  0  0  0
   -3.9553   -9.5659   19.4708 H   0  0  0  0  0  0  0  0  0  0  0  0
   -2.2297  -11.7488   18.1925 H   0  0  0  0  0  0  0  0  0  0  0  0
   -0.7455   -9.9486   17.8636 H   0  0  0  0  0  0  0  0  0  0  0  0
   -1.2760   -6.8299   14.6282 H   0  0  0  0  0  0  0  0  0  0  0  0
    4.9436   -8.4243   14.2402 H   0  0  0  0  0  0  0  0  0  0  0  0
    3.5562   -9.5680   16.3704 H   0  0  0  0  0  0  0  0  0  0  0  0
    1.1116   -9.3426   17.1501 H   0  0  0  0  0  0  0  0  0  0  0  0
   -4.4846  -10.0831   16.9989 H   0  0  0  0  0  0  0  0  0  0  0  0
   -5.6330  -12.3140   16.7593 H   0  0  0  0  0  0  0  0  0  0  0  0
   -4.2155  -13.1549   17.5314 H   0  0  0  0  0  0  0  0  0  0  0  0
   -2.7124  -12.2973   15.7086 H   0  0  0  0  0  0  0  0  0  0  0  0
   -4.1231  -11.4488   14.9358 H   0  0  0  0  0  0  0  0  0  0  0  0
   -6.7123  -12.3512   21.6849 H   0  0  0  0  0  0  0  0  0  0  0  0
   -5.8463  -15.7907   23.6052 H   0  0  0  0  0  0  0  0  0  0  0  0
   -3.6070  -15.2100   22.5142 H   0  0  0  0  0  0  0  0  0  0  0  0
  1  2  2  0
  2  3  1  0
  3  4  1  0
  4  5  1  0
  5  6  1  0
  6  7  1  0
  7  8  2  0
  7  9  1  0
  9 10  1  0
 10 11  2  0
 11 12  1  0
 12 13  2  0
 13 14  1  0
 14 15  2  0
 15 16  1  0
 16 17  1  0
  5 18  1  0
 18 19  1  0
 19 20  1  0
  2 21  1  0
 21 22  1  0
 22 23  2  0
 23 24  1  0
 24 25  1  0
 17  9  2  0
 20 18  1  0
 25 21  2  0
 16 12  1  0
  3 26  1  0
  4 27  1  0
  4 28  1  0
  5 29  1  0
  6 30  1  0
 10 31  1  0
 14 32  1  0
 15 33  1  0
 17 34  1  0
 18 35  1  0
 19 36  1  0
 19 37  1  0
 20 38  1  0
 20 39  1  0
 22 40  1  0
 24 41  1  0
 25 42  1  0
M  END
>  <Energy>  (1052) 
49.701403941684354

>  <compound_id>  (1052) 
25648

>  <target_id>  (1052) 
1

>  <reference_id>  (1052) 
123

>  <inspiration_ids>  (1052) 
[106, 123]

>  <energy_score>  (1052) 
-5.2658580481022454

>  <distance_score>  (1052) 
15.484368806583173

>  <path>  (1052) 
/opt/xchem-fragalysis-2/maxwin/BulkDock/SCRATCH/511017/C25648-P123/C25648-P123.minimised.mol

>  <scratch_subdir>  (1052) 
/opt/xchem-fragalysis-2/maxwin/BulkDock/SCRATCH/511017/C25648-P123

>  <fragmenstein_runtime>  (1052) 
46.01932191848755

>  <fragmenstein_outcome>  (1052) 
too moved

>  <fragmenstein_mode>  (1052) 
expansion

>  <fragmenstein_error>  (1052) 


$$$$
C25649-P106
     RDKit          3D

 42 45  0  0  0  0  0  0  0  0999 V2000
    3.6599  -13.0884   21.3390 O   0  0  0  0  0  0  0  0  0  0  0  0
    3.3735  -12.4425   22.3176 C   0  0  0  0  0  0  0  0  0  0  0  0
    2.8771  -12.8961   23.6904 N   0  0  0  0  0  0  0  0  0  0  0  0
    2.6923  -14.3145   24.2816 C   0  0  0  0  0  0  0  0  0  0  0  0
    1.3387  -14.6750   25.0031 C   0  0  0  0  0  0  0  0  0  0  0  0
    0.6903  -15.9819   25.6748 N   0  0  0  0  0  0  0  0  0  0  0  0
   -0.4161  -16.1147   26.6097 C   0  0  0  0  0  0  0  0  0  0  0  0
   -1.0608  -15.2723   27.1794 O   0  0  0  0  0  0  0  0  0  0  0  0
   -0.9272  -17.4962   26.8470 C   0  0  0  0  0  0  0  0  0  0  0  0
   -1.9080  -17.8615   27.8351 C   0  0  0  0  0  0  0  0  0  0  0  0
   -2.2461  -19.1563   27.8137 N   0  0  0  0  0  0  0  0  0  0  0  0
   -1.5352  -19.6301   26.7789 N   0  0  0  0  0  0  0  0  0  0  0  0
   -0.7299  -18.6916   26.1837 C   0  0  0  0  0  0  0  0  0  0  0  0
    2.0470  -15.9814   26.4385 C   0  0  0  0  0  0  0  0  0  0  0  0
    3.2150  -16.8242   25.9572 C   0  0  0  0  0  0  0  0  0  0  0  0
    2.4601  -17.2549   27.1645 C   0  0  0  0  0  0  0  0  0  0  0  0
    3.7170  -10.8892   22.0545 C   0  0  0  0  0  0  0  0  0  0  0  0
    5.2409  -11.1840   20.6509 C   0  0  0  0  0  0  0  0  0  0  0  0
    5.5114  -10.2723   19.2227 N   0  0  0  0  0  0  0  0  0  0  0  0
    4.0912   -9.1771   18.5587 C   0  0  0  0  0  0  0  0  0  0  0  0
    3.2245   -9.4347   17.5114 N   0  0  0  0  0  0  0  0  0  0  0  0
    2.1457   -8.5719   17.5330 C   0  0  0  0  0  0  0  0  0  0  0  0
    1.5497   -8.5282   18.7351 C   0  0  0  0  0  0  0  0  0  0  0  0
    2.4100   -9.2777   19.4870 N   0  0  0  0  0  0  0  0  0  0  0  0
    2.3833   -9.5990   21.4231 C   0  0  0  0  0  0  0  0  0  0  0  0
    2.6555  -12.0957   24.2426 H   0  0  0  0  0  0  0  0  0  0  0  0
    3.4910  -14.3875   25.0240 H   0  0  0  0  0  0  0  0  0  0  0  0
    3.0314  -14.9932   23.5316 H   0  0  0  0  0  0  0  0  0  0  0  0
    1.1245  -13.8903   25.7404 H   0  0  0  0  0  0  0  0  0  0  0  0
    0.5957  -14.5826   24.2041 H   0  0  0  0  0  0  0  0  0  0  0  0
   -2.3773  -17.2067   28.5603 H   0  0  0  0  0  0  0  0  0  0  0  0
   -1.6478  -20.6054   26.5231 H   0  0  0  0  0  0  0  0  0  0  0  0
   -0.1182  -18.9444   25.3294 H   0  0  0  0  0  0  0  0  0  0  0  0
    2.2006  -15.1140   27.0887 H   0  0  0  0  0  0  0  0  0  0  0  0
    3.0935  -17.4238   25.0632 H   0  0  0  0  0  0  0  0  0  0  0  0
    4.2192  -16.4419   26.1025 H   0  0  0  0  0  0  0  0  0  0  0  0
    1.8636  -18.1528   27.0769 H   0  0  0  0  0  0  0  0  0  0  0  0
    2.9414  -17.1502   28.1310 H   0  0  0  0  0  0  0  0  0  0  0  0
    5.9131  -12.0476   20.7211 H   0  0  0  0  0  0  0  0  0  0  0  0
    1.7266   -8.1893   16.6097 H   0  0  0  0  0  0  0  0  0  0  0  0
    0.6161   -8.1654   19.1352 H   0  0  0  0  0  0  0  0  0  0  0  0
    1.2725   -9.5218   21.5315 H   0  0  0  0  0  0  0  0  0  0  0  0
  1  2  2  0
  2  3  1  0
  3  4  1  0
  4  5  1  0
  5  6  1  0
  6  7  1  0
  7  8  2  0
  7  9  1  0
  9 10  1  0
 10 11  2  0
 11 12  1  0
 12 13  1  0
  6 14  1  0
 14 15  1  0
 15 16  1  0
  2 17  1  0
 17 18  1  0
 18 19  2  0
 19 20  1  0
 20 21  2  0
 21 22  1  0
 22 23  2  0
 23 24  1  0
 24 25  1  0
 13  9  2  0
 16 14  1  0
 25 17  2  0
 24 20  1  0
  3 26  1  0
  4 27  1  0
  4 28  1  0
  5 29  1  0
  5 30  1  0
 10 31  1  0
 12 32  1  0
 13 33  1  0
 14 34  1  0
 15 35  1  0
 15 36  1  0
 16 37  1  0
 16 38  1  0
 18 39  1  0
 22 40  1  0
 23 41  1  0
 25 42  1  0
M  END
>  <Energy>  (1053) 
815.81749481125564

>  <compound_id>  (1053) 
25649

>  <target_id>  (1053) 
1

>  <reference_id>  (1053) 
106

>  <inspiration_ids>  (1053) 
[106, 123]

>  <energy_score>  (1053) 
731.5208223149339

>  <distance_score>  (1053) 
14.249674362932945

>  <path>  (1053) 
/opt/xchem-fragalysis-2/maxwin/BulkDock/SCRATCH/511017/C25649-P106/C25649-P106.minimised.mol

>  <scratch_subdir>  (1053) 
/opt/xchem-fragalysis-2/maxwin/BulkDock/SCRATCH/511017/C25649-P106

>  <fragmenstein_runtime>  (1053) 
30.463838577270508

>  <fragmenstein_outcome>  (1053) 
too moved

>  <fragmenstein_mode>  (1053) 
expansion

>  <fragmenstein_error>  (1053) 


$$$$
C25649-P123
     RDKit          3D

 42 45  0  0  0  0  0  0  0  0999 V2000
    8.3713  -10.2034   25.6841 O   0  0  0  0  0  0  0  0  0  0  0  0
    7.8768   -9.3180   26.3232 C   0  0  0  0  0  0  0  0  0  0  0  0
    6.9515   -9.3605   27.4330 N   0  0  0  0  0  0  0  0  0  0  0  0
    6.3963  -10.5146   28.1971 C   0  0  0  0  0  0  0  0  0  0  0  0
    5.2068  -10.2904   29.1843 C   0  0  0  0  0  0  0  0  0  0  0  0
    4.1121  -11.5054   29.4685 N   0  0  0  0  0  0  0  0  0  0  0  0
    2.8028  -11.4731   30.1048 C   0  0  0  0  0  0  0  0  0  0  0  0
    2.2292  -10.5722   30.6611 O   0  0  0  0  0  0  0  0  0  0  0  0
    2.0140  -12.7613   30.0426 C   0  0  0  0  0  0  0  0  0  0  0  0
    2.1280  -13.9664   29.2960 C   0  0  0  0  0  0  0  0  0  0  0  0
    1.1803  -14.8788   29.5686 N   0  0  0  0  0  0  0  0  0  0  0  0
    0.4006  -14.2641   30.4659 N   0  0  0  0  0  0  0  0  0  0  0  0
    0.8512  -13.0133   30.7794 C   0  0  0  0  0  0  0  0  0  0  0  0
    5.2060  -11.9331   30.4976 C   0  0  0  0  0  0  0  0  0  0  0  0
    5.2131  -13.3829   30.9648 C   0  0  0  0  0  0  0  0  0  0  0  0
    6.3378  -12.8738   30.1368 C   0  0  0  0  0  0  0  0  0  0  0  0
    8.3922   -7.9345   25.9096 C   0  0  0  0  0  0  0  0  0  0  0  0
    9.8525   -7.8074   25.4978 C   0  0  0  0  0  0  0  0  0  0  0  0
   10.4507   -6.8043   24.9248 N   0  0  0  0  0  0  0  0  0  0  0  0
    9.6794   -5.7140   24.6725 C   0  0  0  0  0  0  0  0  0  0  0  0
   10.0025   -4.5956   24.0534 N   0  0  0  0  0  0  0  0  0  0  0  0
    8.8633   -3.8432   24.0144 C   0  0  0  0  0  0  0  0  0  0  0  0
    7.8248   -4.5092   24.6191 C   0  0  0  0  0  0  0  0  0  0  0  0
    8.3279   -5.7244   25.0064 N   0  0  0  0  0  0  0  0  0  0  0  0
    7.6898   -6.8256   25.6001 C   0  0  0  0  0  0  0  0  0  0  0  0
    6.8110   -8.4193   27.7821 H   0  0  0  0  0  0  0  0  0  0  0  0
    7.2564  -10.9028   28.7513 H   0  0  0  0  0  0  0  0  0  0  0  0
    6.1431  -11.2792   27.4583 H   0  0  0  0  0  0  0  0  0  0  0  0
    4.5518   -9.5545   28.7099 H   0  0  0  0  0  0  0  0  0  0  0  0
    5.4929   -9.7446   30.0971 H   0  0  0  0  0  0  0  0  0  0  0  0
    2.8806  -14.2179   28.5589 H   0  0  0  0  0  0  0  0  0  0  0  0
   -0.4173  -14.7522   30.8182 H   0  0  0  0  0  0  0  0  0  0  0  0
    0.3229  -12.3954   31.4923 H   0  0  0  0  0  0  0  0  0  0  0  0
    5.2760  -11.2685   31.3648 H   0  0  0  0  0  0  0  0  0  0  0  0
    4.5696  -14.1203   30.5046 H   0  0  0  0  0  0  0  0  0  0  0  0
    5.4017  -13.5762   32.0159 H   0  0  0  0  0  0  0  0  0  0  0  0
    6.4086  -13.2614   29.1260 H   0  0  0  0  0  0  0  0  0  0  0  0
    7.2967  -12.7313   30.6226 H   0  0  0  0  0  0  0  0  0  0  0  0
   10.4622   -8.7033   25.7115 H   0  0  0  0  0  0  0  0  0  0  0  0
    8.8575   -2.8550   23.5754 H   0  0  0  0  0  0  0  0  0  0  0  0
    6.8015   -4.2334   24.8115 H   0  0  0  0  0  0  0  0  0  0  0  0
    6.6151   -6.7558   25.7133 H   0  0  0  0  0  0  0  0  0  0  0  0
  1  2  2  0
  2  3  1  0
  3  4  1  0
  4  5  1  0
  5  6  1  0
  6  7  1  0
  7  8  2  0
  7  9  1  0
  9 10  1  0
 10 11  2  0
 11 12  1  0
 12 13  1  0
  6 14  1  0
 14 15  1  0
 15 16  1  0
  2 17  1  0
 17 18  1  0
 18 19  2  0
 19 20  1  0
 20 21  2  0
 21 22  1  0
 22 23  2  0
 23 24  1  0
 24 25  1  0
 13  9  2  0
 16 14  1  0
 25 17  2  0
 24 20  1  0
  3 26  1  0
  4 27  1  0
  4 28  1  0
  5 29  1  0
  5 30  1  0
 10 31  1  0
 12 32  1  0
 13 33  1  0
 14 34  1  0
 15 35  1  0
 15 36  1  0
 16 37  1  0
 16 38  1  0
 18 39  1  0
 22 40  1  0
 23 41  1  0
 25 42  1  0
M  END
>  <Energy>  (1054) 
117.59334676761284

>  <compound_id>  (1054) 
25649

>  <target_id>  (1054) 
1

>  <reference_id>  (1054) 
123

>  <inspiration_ids>  (1054) 
[106, 123]

>  <energy_score>  (1054) 
33.29667427129664

>  <distance_score>  (1054) 
15.534969298047704

>  <path>  (1054) 
/opt/xchem-fragalysis-2/maxwin/BulkDock/SCRATCH/511017/C25649-P123/C25649-P123.minimised.mol

>  <scratch_subdir>  (1054) 
/opt/xchem-fragalysis-2/maxwin/BulkDock/SCRATCH/511017/C25649-P123

>  <fragmenstein_runtime>  (1054) 
24.76561141014099

>  <fragmenstein_outcome>  (1054) 
too moved

>  <fragmenstein_mode>  (1054) 
expansion

>  <fragmenstein_error>  (1054) 


$$$$
C25650-P106
     RDKit          3D

 41 43  0  0  0  0  0  0  0  0999 V2000
   -9.6510  -19.8732   20.8319 C   0  0  0  0  0  0  0  0  0  0  0  0
  -10.3307  -18.8553   21.7807 C   0  0  0  0  0  0  0  0  0  0  0  0
  -11.8913  -19.0451   22.0095 C   0  0  0  0  0  0  0  0  0  0  0  0
  -12.3721  -20.1772   22.8089 N   0  0  0  0  0  0  0  0  0  0  0  0
  -11.7543  -21.4257   23.1362 C   0  0  0  0  0  0  0  0  0  0  0  0
  -10.6591  -21.8331   22.9083 O   0  0  0  0  0  0  0  0  0  0  0  0
  -12.6800  -22.3440   23.8370 C   0  0  0  0  0  0  0  0  0  0  0  0
  -12.4059  -23.2421   24.9271 C   0  0  0  0  0  0  0  0  0  0  0  0
  -13.4595  -23.9944   25.2781 N   0  0  0  0  0  0  0  0  0  0  0  0
  -14.4364  -23.5280   24.4830 N   0  0  0  0  0  0  0  0  0  0  0  0
  -14.0215  -22.5851   23.5809 C   0  0  0  0  0  0  0  0  0  0  0  0
   -9.6430  -17.4616   21.8540 N   0  0  0  0  0  0  0  0  0  0  0  0
  -10.5001  -17.2108   20.6482 C   0  0  0  0  0  0  0  0  0  0  0  0
   -9.7946  -16.3981   22.7895 C   0  0  0  0  0  0  0  0  0  0  0  0
  -10.5596  -16.2706   23.7097 O   0  0  0  0  0  0  0  0  0  0  0  0
   -8.7542  -15.3275   22.6252 C   0  0  0  0  0  0  0  0  0  0  0  0
   -8.4236  -14.4311   23.6312 C   0  0  0  0  0  0  0  0  0  0  0  0
   -7.6825  -13.4558   23.0503 N   0  0  0  0  0  0  0  0  0  0  0  0
   -7.3357  -12.2229   23.5704 C   0  0  0  0  0  0  0  0  0  0  0  0
   -6.7400  -11.3464   22.7706 C   0  0  0  0  0  0  0  0  0  0  0  0
   -6.3284  -11.9676   21.4758 C   0  0  0  0  0  0  0  0  0  0  0  0
   -6.6369  -13.1072   20.9463 N   0  0  0  0  0  0  0  0  0  0  0  0
   -7.4295  -13.8576   21.7422 C   0  0  0  0  0  0  0  0  0  0  0  0
   -8.0303  -15.0007   21.4778 N   0  0  0  0  0  0  0  0  0  0  0  0
   -8.9302  -20.4847   21.3874 H   0  0  0  0  0  0  0  0  0  0  0  0
   -9.0766  -19.4009   20.0289 H   0  0  0  0  0  0  0  0  0  0  0  0
  -10.3850  -20.5499   20.3836 H   0  0  0  0  0  0  0  0  0  0  0  0
   -9.9662  -19.2057   22.7551 H   0  0  0  0  0  0  0  0  0  0  0  0
  -12.4001  -19.1218   21.0420 H   0  0  0  0  0  0  0  0  0  0  0  0
  -12.2927  -18.1668   22.5269 H   0  0  0  0  0  0  0  0  0  0  0  0
  -13.3458  -20.2071   23.0900 H   0  0  0  0  0  0  0  0  0  0  0  0
  -11.4780  -23.4162   25.4482 H   0  0  0  0  0  0  0  0  0  0  0  0
  -15.3684  -23.9106   24.5971 H   0  0  0  0  0  0  0  0  0  0  0  0
  -14.7074  -22.1721   22.8569 H   0  0  0  0  0  0  0  0  0  0  0  0
  -10.4417  -17.8909   19.7907 H   0  0  0  0  0  0  0  0  0  0  0  0
  -10.1013  -16.2761   20.2243 H   0  0  0  0  0  0  0  0  0  0  0  0
  -11.5291  -16.9226   20.9024 H   0  0  0  0  0  0  0  0  0  0  0  0
   -8.7747  -14.3657   24.6517 H   0  0  0  0  0  0  0  0  0  0  0  0
   -7.6231  -12.0021   24.5896 H   0  0  0  0  0  0  0  0  0  0  0  0
   -6.4196  -10.3682   23.0895 H   0  0  0  0  0  0  0  0  0  0  0  0
   -5.4814  -11.4969   21.0003 H   0  0  0  0  0  0  0  0  0  0  0  0
  1  2  1  0
  2  3  1  0
  3  4  1  0
  4  5  1  0
  5  6  2  0
  5  7  1  0
  7  8  1  0
  8  9  2  0
  9 10  1  0
 10 11  1  0
  2 12  1  0
 12 13  1  0
 12 14  1  0
 14 15  2  0
 14 16  1  0
 16 17  2  0
 17 18  1  0
 18 19  1  0
 19 20  2  0
 20 21  1  0
 21 22  2  0
 22 23  1  0
 23 24  2  0
 11  7  2  0
 24 16  1  0
 23 18  1  0
  1 25  1  0
  1 26  1  0
  1 27  1  0
  2 28  1  0
  3 29  1  0
  3 30  1  0
  4 31  1  0
  8 32  1  0
 10 33  1  0
 11 34  1  0
 13 35  1  0
 13 36  1  0
 13 37  1  0
 17 38  1  0
 19 39  1  0
 20 40  1  0
 21 41  1  0
M  END
>  <Energy>  (1055) 
143.49941674279609

>  <compound_id>  (1055) 
25650

>  <target_id>  (1055) 
1

>  <reference_id>  (1055) 
106

>  <inspiration_ids>  (1055) 
[106, 123]

>  <energy_score>  (1055) 
56.44352055888487

>  <distance_score>  (1055) 
18.77256819262642

>  <path>  (1055) 
/opt/xchem-fragalysis-2/maxwin/BulkDock/SCRATCH/511017/C25650-P106/C25650-P106.minimised.mol

>  <scratch_subdir>  (1055) 
/opt/xchem-fragalysis-2/maxwin/BulkDock/SCRATCH/511017/C25650-P106

>  <fragmenstein_runtime>  (1055) 
30.524543523788452

>  <fragmenstein_outcome>  (1055) 
too moved

>  <fragmenstein_mode>  (1055) 
expansion

>  <fragmenstein_error>  (1055) 


$$$$
C25650-P123
     RDKit          3D

 41 43  0  0  0  0  0  0  0  0999 V2000
   -2.1575  -10.3144   18.1739 C   0  0  0  0  0  0  0  0  0  0  0  0
   -2.1538  -10.3620   19.6838 C   0  0  0  0  0  0  0  0  0  0  0  0
   -3.6837  -11.2161   19.7287 C   0  0  0  0  0  0  0  0  0  0  0  0
   -4.8330  -11.9855   20.4572 N   0  0  0  0  0  0  0  0  0  0  0  0
   -6.0227  -12.7794   19.9008 C   0  0  0  0  0  0  0  0  0  0  0  0
   -6.3079  -13.0669   18.7636 O   0  0  0  0  0  0  0  0  0  0  0  0
   -6.9190  -13.3679   20.9848 C   0  0  0  0  0  0  0  0  0  0  0  0
   -7.6592  -14.5954   20.9092 C   0  0  0  0  0  0  0  0  0  0  0  0
   -8.2033  -14.9811   22.0722 N   0  0  0  0  0  0  0  0  0  0  0  0
   -7.8851  -13.9809   22.9051 N   0  0  0  0  0  0  0  0  0  0  0  0
   -7.1462  -12.9938   22.3028 C   0  0  0  0  0  0  0  0  0  0  0  0
   -1.6637   -8.6572   19.8533 N   0  0  0  0  0  0  0  0  0  0  0  0
   -1.2372   -9.1520   21.1895 C   0  0  0  0  0  0  0  0  0  0  0  0
   -0.3173   -7.6892   19.0685 C   0  0  0  0  0  0  0  0  0  0  0  0
    0.4660   -8.2933   18.3612 O   0  0  0  0  0  0  0  0  0  0  0  0
   -0.1010   -5.6141   19.1449 C   0  0  0  0  0  0  0  0  0  0  0  0
    0.1378   -3.7872   18.6909 C   0  0  0  0  0  0  0  0  0  0  0  0
    1.2310   -3.1508   19.3789 N   0  0  0  0  0  0  0  0  0  0  0  0
    1.9331   -2.0189   18.9224 C   0  0  0  0  0  0  0  0  0  0  0  0
    3.0469   -1.6098   19.5434 C   0  0  0  0  0  0  0  0  0  0  0  0
    3.3443   -2.3713   20.7750 C   0  0  0  0  0  0  0  0  0  0  0  0
    2.6813   -3.3939   21.2187 N   0  0  0  0  0  0  0  0  0  0  0  0
    1.6841   -3.9090   20.4387 C   0  0  0  0  0  0  0  0  0  0  0  0
    1.1552   -5.1360   20.4309 N   0  0  0  0  0  0  0  0  0  0  0  0
   -1.4942   -9.5628   17.7909 H   0  0  0  0  0  0  0  0  0  0  0  0
   -1.9319  -11.3266   17.8507 H   0  0  0  0  0  0  0  0  0  0  0  0
   -3.0958   -9.9720   17.7272 H   0  0  0  0  0  0  0  0  0  0  0  0
   -1.4412  -11.0883   20.0725 H   0  0  0  0  0  0  0  0  0  0  0  0
   -3.9563  -10.3427   20.2831 H   0  0  0  0  0  0  0  0  0  0  0  0
   -3.9781  -11.3794   18.6995 H   0  0  0  0  0  0  0  0  0  0  0  0
   -4.9508  -11.8619   21.4372 H   0  0  0  0  0  0  0  0  0  0  0  0
   -7.7656  -15.2372   20.0420 H   0  0  0  0  0  0  0  0  0  0  0  0
   -8.2037  -14.0290   23.8681 H   0  0  0  0  0  0  0  0  0  0  0  0
   -6.8205  -12.1363   22.8747 H   0  0  0  0  0  0  0  0  0  0  0  0
   -0.4319   -9.8861   21.2261 H   0  0  0  0  0  0  0  0  0  0  0  0
   -2.1127   -9.4251   21.7865 H   0  0  0  0  0  0  0  0  0  0  0  0
   -0.7796   -8.3115   21.7153 H   0  0  0  0  0  0  0  0  0  0  0  0
    0.0186   -3.2967   17.7237 H   0  0  0  0  0  0  0  0  0  0  0  0
    1.5612   -1.5386   18.0261 H   0  0  0  0  0  0  0  0  0  0  0  0
    3.6614   -0.7749   19.2461 H   0  0  0  0  0  0  0  0  0  0  0  0
    4.1841   -1.9822   21.3738 H   0  0  0  0  0  0  0  0  0  0  0  0
  1  2  1  0
  2  3  1  0
  3  4  1  0
  4  5  1  0
  5  6  2  0
  5  7  1  0
  7  8  1  0
  8  9  2  0
  9 10  1  0
 10 11  1  0
  2 12  1  0
 12 13  1  0
 12 14  1  0
 14 15  2  0
 14 16  1  0
 16 17  2  0
 17 18  1  0
 18 19  1  0
 19 20  2  0
 20 21  1  0
 21 22  2  0
 22 23  1  0
 23 24  2  0
 11  7  2  0
 24 16  1  0
 23 18  1  0
  1 25  1  0
  1 26  1  0
  1 27  1  0
  2 28  1  0
  3 29  1  0
  3 30  1  0
  4 31  1  0
  8 32  1  0
 10 33  1  0
 11 34  1  0
 13 35  1  0
 13 36  1  0
 13 37  1  0
 17 38  1  0
 19 39  1  0
 20 40  1  0
 21 41  1  0
M  END
>  <Energy>  (1056) 
641.57130422324633

>  <compound_id>  (1056) 
25650

>  <target_id>  (1056) 
1

>  <reference_id>  (1056) 
123

>  <inspiration_ids>  (1056) 
[106, 123]

>  <energy_score>  (1056) 
554.5154080393347

>  <distance_score>  (1056) 
14.37146982249478

>  <path>  (1056) 
/opt/xchem-fragalysis-2/maxwin/BulkDock/SCRATCH/511017/C25650-P123/C25650-P123.minimised.mol

>  <scratch_subdir>  (1056) 
/opt/xchem-fragalysis-2/maxwin/BulkDock/SCRATCH/511017/C25650-P123

>  <fragmenstein_runtime>  (1056) 
27.313992261886597

>  <fragmenstein_outcome>  (1056) 
too moved

>  <fragmenstein_mode>  (1056) 
expansion

>  <fragmenstein_error>  (1056) 


$$$$
C25651-P106
     RDKit          3D

 41 43  0  0  0  0  0  0  0  0999 V2000
   -1.4711   -9.6932   21.0103 C   0  0  0  0  0  0  0  0  0  0  0  0
   -0.1287   -9.8616   21.7486 C   0  0  0  0  0  0  0  0  0  0  0  0
    0.1549  -11.6418   22.6353 C   0  0  0  0  0  0  0  0  0  0  0  0
   -0.2585  -13.6504   23.2850 C   0  0  0  0  0  0  0  0  0  0  0  0
   -1.1918  -13.9492   24.9408 N   0  0  0  0  0  0  0  0  0  0  0  0
   -2.4832  -14.8199   25.2622 C   0  0  0  0  0  0  0  0  0  0  0  0
   -3.1241  -15.5575   24.5489 O   0  0  0  0  0  0  0  0  0  0  0  0
   -3.0003  -14.8246   26.6694 C   0  0  0  0  0  0  0  0  0  0  0  0
   -2.6588  -14.1858   27.8770 C   0  0  0  0  0  0  0  0  0  0  0  0
   -3.3768  -14.6019   28.9325 N   0  0  0  0  0  0  0  0  0  0  0  0
   -4.1855  -15.5418   28.4224 N   0  0  0  0  0  0  0  0  0  0  0  0
   -4.0192  -15.6935   27.0817 C   0  0  0  0  0  0  0  0  0  0  0  0
    1.1762   -9.5039   20.8156 N   0  0  0  0  0  0  0  0  0  0  0  0
    1.2860   -8.8301   19.2496 C   0  0  0  0  0  0  0  0  0  0  0  0
    0.3802   -8.3929   18.5618 O   0  0  0  0  0  0  0  0  0  0  0  0
    2.8686   -8.8568   18.3352 C   0  0  0  0  0  0  0  0  0  0  0  0
    4.4943   -8.9580   18.4316 C   0  0  0  0  0  0  0  0  0  0  0  0
    5.1862   -7.6540   18.3828 N   0  0  0  0  0  0  0  0  0  0  0  0
    6.4172   -7.0248   18.5778 C   0  0  0  0  0  0  0  0  0  0  0  0
    6.4802   -5.8564   18.0703 C   0  0  0  0  0  0  0  0  0  0  0  0
    5.9627   -5.9914   16.7474 C   0  0  0  0  0  0  0  0  0  0  0  0
    4.7376   -6.2148   16.6045 N   0  0  0  0  0  0  0  0  0  0  0  0
    4.3101   -7.0033   17.6905 C   0  0  0  0  0  0  0  0  0  0  0  0
    3.0418   -7.7236   17.7842 N   0  0  0  0  0  0  0  0  0  0  0  0
   -2.2839   -9.5002   21.7151 H   0  0  0  0  0  0  0  0  0  0  0  0
   -1.4445   -8.8350   20.3375 H   0  0  0  0  0  0  0  0  0  0  0  0
   -1.7456  -10.5732   20.4208 H   0  0  0  0  0  0  0  0  0  0  0  0
   -0.1060   -9.0801   22.5084 H   0  0  0  0  0  0  0  0  0  0  0  0
    1.2155  -11.6268   22.5772 H   0  0  0  0  0  0  0  0  0  0  0  0
   -0.7877  -11.6163   21.9939 H   0  0  0  0  0  0  0  0  0  0  0  0
   -0.4307  -14.4183   22.5263 H   0  0  0  0  0  0  0  0  0  0  0  0
    0.6475  -14.0622   23.8007 H   0  0  0  0  0  0  0  0  0  0  0  0
   -0.9586  -13.3761   25.7482 H   0  0  0  0  0  0  0  0  0  0  0  0
   -1.8939  -13.4394   28.0450 H   0  0  0  0  0  0  0  0  0  0  0  0
   -4.8215  -16.0319   29.0447 H   0  0  0  0  0  0  0  0  0  0  0  0
   -4.5968  -16.4180   26.5237 H   0  0  0  0  0  0  0  0  0  0  0  0
    2.0620   -9.6903   21.1473 H   0  0  0  0  0  0  0  0  0  0  0  0
    5.1569   -9.7793   18.2915 H   0  0  0  0  0  0  0  0  0  0  0  0
    7.0023   -7.3205   19.4566 H   0  0  0  0  0  0  0  0  0  0  0  0
    6.6411   -5.0715   18.7730 H   0  0  0  0  0  0  0  0  0  0  0  0
    6.6505   -5.8789   15.9262 H   0  0  0  0  0  0  0  0  0  0  0  0
  1  2  1  0
  2  3  1  0
  3  4  1  0
  4  5  1  0
  5  6  1  0
  6  7  2  0
  6  8  1  0
  8  9  1  0
  9 10  2  0
 10 11  1  0
 11 12  1  0
  2 13  1  0
 13 14  1  0
 14 15  2  0
 14 16  1  0
 16 17  2  0
 17 18  1  0
 18 19  1  0
 19 20  2  0
 20 21  1  0
 21 22  2  0
 22 23  1  0
 23 24  2  0
 12  8  2  0
 24 16  1  0
 23 18  1  0
  1 25  1  0
  1 26  1  0
  1 27  1  0
  2 28  1  0
  3 29  1  0
  3 30  1  0
  4 31  1  0
  4 32  1  0
  5 33  1  0
  9 34  1  0
 11 35  1  0
 12 36  1  0
 13 37  1  0
 17 38  1  0
 19 39  1  0
 20 40  1  0
 21 41  1  0
M  END
>  <Energy>  (1057) 
622.15469692205954

>  <compound_id>  (1057) 
25651

>  <target_id>  (1057) 
1

>  <reference_id>  (1057) 
106

>  <inspiration_ids>  (1057) 
[106, 123]

>  <energy_score>  (1057) 
560.6263493179995

>  <distance_score>  (1057) 
12.53359885568455

>  <path>  (1057) 
/opt/xchem-fragalysis-2/maxwin/BulkDock/SCRATCH/511017/C25651-P106/C25651-P106.minimised.mol

>  <scratch_subdir>  (1057) 
/opt/xchem-fragalysis-2/maxwin/BulkDock/SCRATCH/511017/C25651-P106

>  <fragmenstein_runtime>  (1057) 
28.04147171974182

>  <fragmenstein_outcome>  (1057) 
too moved

>  <fragmenstein_mode>  (1057) 
expansion

>  <fragmenstein_error>  (1057) 


$$$$
C25651-P123
     RDKit          3D

 41 43  0  0  0  0  0  0  0  0999 V2000
    6.1343  -16.1176   27.1764 C   0  0  0  0  0  0  0  0  0  0  0  0
    4.8392  -15.3672   27.4314 C   0  0  0  0  0  0  0  0  0  0  0  0
    3.6586  -16.3582   27.9457 C   0  0  0  0  0  0  0  0  0  0  0  0
    3.8093  -17.2019   29.2138 C   0  0  0  0  0  0  0  0  0  0  0  0
    2.5600  -17.9322   29.5194 N   0  0  0  0  0  0  0  0  0  0  0  0
    1.3688  -17.5172   30.2187 C   0  0  0  0  0  0  0  0  0  0  0  0
    1.1198  -16.5014   30.7977 O   0  0  0  0  0  0  0  0  0  0  0  0
    0.2880  -18.5559   30.2501 C   0  0  0  0  0  0  0  0  0  0  0  0
   -0.9554  -18.4487   30.9590 C   0  0  0  0  0  0  0  0  0  0  0  0
   -1.7486  -19.5182   30.8333 N   0  0  0  0  0  0  0  0  0  0  0  0
   -1.0453  -20.3258   30.0303 N   0  0  0  0  0  0  0  0  0  0  0  0
    0.1689  -19.8031   29.6551 C   0  0  0  0  0  0  0  0  0  0  0  0
    4.3219  -14.6420   26.2267 N   0  0  0  0  0  0  0  0  0  0  0  0
    4.3480  -14.9946   24.8183 C   0  0  0  0  0  0  0  0  0  0  0  0
    4.8671  -15.9165   24.2577 O   0  0  0  0  0  0  0  0  0  0  0  0
    3.3522  -13.9888   23.7482 C   0  0  0  0  0  0  0  0  0  0  0  0
    3.0710  -12.6318   23.6207 C   0  0  0  0  0  0  0  0  0  0  0  0
    3.6353  -12.2023   22.4004 N   0  0  0  0  0  0  0  0  0  0  0  0
    4.6780  -11.2523   22.0114 C   0  0  0  0  0  0  0  0  0  0  0  0
    5.5431  -11.5830   20.9449 C   0  0  0  0  0  0  0  0  0  0  0  0
    5.1563  -12.6324   20.1015 C   0  0  0  0  0  0  0  0  0  0  0  0
    4.0355  -13.1696   20.2691 N   0  0  0  0  0  0  0  0  0  0  0  0
    3.4804  -13.2635   21.5169 C   0  0  0  0  0  0  0  0  0  0  0  0
    3.1270  -14.4135   22.3817 N   0  0  0  0  0  0  0  0  0  0  0  0
    6.9098  -15.4394   26.8081 H   0  0  0  0  0  0  0  0  0  0  0  0
    6.5044  -16.5763   28.0987 H   0  0  0  0  0  0  0  0  0  0  0  0
    6.0009  -16.9132   26.4370 H   0  0  0  0  0  0  0  0  0  0  0  0
    4.9971  -14.6040   28.2014 H   0  0  0  0  0  0  0  0  0  0  0  0
    2.7797  -15.7267   28.1304 H   0  0  0  0  0  0  0  0  0  0  0  0
    3.4217  -17.0535   27.1304 H   0  0  0  0  0  0  0  0  0  0  0  0
    4.6043  -17.9445   29.1044 H   0  0  0  0  0  0  0  0  0  0  0  0
    4.0305  -16.5557   30.0687 H   0  0  0  0  0  0  0  0  0  0  0  0
    2.4488  -18.8908   29.2191 H   0  0  0  0  0  0  0  0  0  0  0  0
   -1.2891  -17.6150   31.5659 H   0  0  0  0  0  0  0  0  0  0  0  0
   -1.4515  -21.2193   29.7719 H   0  0  0  0  0  0  0  0  0  0  0  0
    0.8178  -20.3672   29.0017 H   0  0  0  0  0  0  0  0  0  0  0  0
    3.8571  -13.7502   26.3343 H   0  0  0  0  0  0  0  0  0  0  0  0
    2.2259  -12.0986   23.9963 H   0  0  0  0  0  0  0  0  0  0  0  0
    5.0476  -10.5948   22.7674 H   0  0  0  0  0  0  0  0  0  0  0  0
    6.3802  -11.1550   20.4662 H   0  0  0  0  0  0  0  0  0  0  0  0
    5.7508  -12.7715   19.2327 H   0  0  0  0  0  0  0  0  0  0  0  0
  1  2  1  0
  2  3  1  0
  3  4  1  0
  4  5  1  0
  5  6  1  0
  6  7  2  0
  6  8  1  0
  8  9  1  0
  9 10  2  0
 10 11  1  0
 11 12  1  0
  2 13  1  0
 13 14  1  0
 14 15  2  0
 14 16  1  0
 16 17  2  0
 17 18  1  0
 18 19  1  0
 19 20  2  0
 20 21  1  0
 21 22  2  0
 22 23  1  0
 23 24  2  0
 12  8  2  0
 24 16  1  0
 23 18  1  0
  1 25  1  0
  1 26  1  0
  1 27  1  0
  2 28  1  0
  3 29  1  0
  3 30  1  0
  4 31  1  0
  4 32  1  0
  5 33  1  0
  9 34  1  0
 11 35  1  0
 12 36  1  0
 13 37  1  0
 17 38  1  0
 19 39  1  0
 20 40  1  0
 21 41  1  0
M  END
>  <Energy>  (1058) 
169.52920515630709

>  <compound_id>  (1058) 
25651

>  <target_id>  (1058) 
1

>  <reference_id>  (1058) 
123

>  <inspiration_ids>  (1058) 
[106, 123]

>  <energy_score>  (1058) 
108.00085755225007

>  <distance_score>  (1058) 
15.16668040195069

>  <path>  (1058) 
/opt/xchem-fragalysis-2/maxwin/BulkDock/SCRATCH/511017/C25651-P123/C25651-P123.minimised.mol

>  <scratch_subdir>  (1058) 
/opt/xchem-fragalysis-2/maxwin/BulkDock/SCRATCH/511017/C25651-P123

>  <fragmenstein_runtime>  (1058) 
48.564488649368286

>  <fragmenstein_outcome>  (1058) 
too moved

>  <fragmenstein_mode>  (1058) 
expansion

>  <fragmenstein_error>  (1058) 


$$$$
C25649-P106
     RDKit          3D

 42 45  0  0  0  0  0  0  0  0999 V2000
    3.6599  -13.0884   21.3390 O   0  0  0  0  0  0  0  0  0  0  0  0
    3.3735  -12.4425   22.3176 C   0  0  0  0  0  0  0  0  0  0  0  0
    2.8771  -12.8961   23.6904 N   0  0  0  0  0  0  0  0  0  0  0  0
    2.6923  -14.3145   24.2816 C   0  0  0  0  0  0  0  0  0  0  0  0
    1.3387  -14.6750   25.0031 C   0  0  0  0  0  0  0  0  0  0  0  0
    0.6903  -15.9819   25.6748 N   0  0  0  0  0  0  0  0  0  0  0  0
   -0.4161  -16.1147   26.6097 C   0  0  0  0  0  0  0  0  0  0  0  0
   -1.0608  -15.2723   27.1794 O   0  0  0  0  0  0  0  0  0  0  0  0
   -0.9272  -17.4962   26.8470 C   0  0  0  0  0  0  0  0  0  0  0  0
   -1.9080  -17.8615   27.8351 C   0  0  0  0  0  0  0  0  0  0  0  0
   -2.2461  -19.1563   27.8137 N   0  0  0  0  0  0  0  0  0  0  0  0
   -1.5352  -19.6301   26.7789 N   0  0  0  0  0  0  0  0  0  0  0  0
   -0.7299  -18.6916   26.1837 C   0  0  0  0  0  0  0  0  0  0  0  0
    2.0470  -15.9814   26.4385 C   0  0  0  0  0  0  0  0  0  0  0  0
    3.2150  -16.8242   25.9572 C   0  0  0  0  0  0  0  0  0  0  0  0
    2.4601  -17.2549   27.1645 C   0  0  0  0  0  0  0  0  0  0  0  0
    3.7170  -10.8892   22.0545 C   0  0  0  0  0  0  0  0  0  0  0  0
    5.2409  -11.1840   20.6509 C   0  0  0  0  0  0  0  0  0  0  0  0
    5.5114  -10.2723   19.2227 N   0  0  0  0  0  0  0  0  0  0  0  0
    4.0912   -9.1771   18.5587 C   0  0  0  0  0  0  0  0  0  0  0  0
    3.2245   -9.4347   17.5114 N   0  0  0  0  0  0  0  0  0  0  0  0
    2.1457   -8.5719   17.5330 C   0  0  0  0  0  0  0  0  0  0  0  0
    1.5497   -8.5282   18.7351 C   0  0  0  0  0  0  0  0  0  0  0  0
    2.4100   -9.2777   19.4870 N   0  0  0  0  0  0  0  0  0  0  0  0
    2.3833   -9.5990   21.4231 C   0  0  0  0  0  0  0  0  0  0  0  0
    2.6555  -12.0957   24.2426 H   0  0  0  0  0  0  0  0  0  0  0  0
    3.4910  -14.3875   25.0240 H   0  0  0  0  0  0  0  0  0  0  0  0
    3.0314  -14.9932   23.5316 H   0  0  0  0  0  0  0  0  0  0  0  0
    1.1245  -13.8903   25.7404 H   0  0  0  0  0  0  0  0  0  0  0  0
    0.5957  -14.5826   24.2041 H   0  0  0  0  0  0  0  0  0  0  0  0
   -2.3773  -17.2067   28.5603 H   0  0  0  0  0  0  0  0  0  0  0  0
   -1.6478  -20.6054   26.5231 H   0  0  0  0  0  0  0  0  0  0  0  0
   -0.1182  -18.9444   25.3294 H   0  0  0  0  0  0  0  0  0  0  0  0
    2.2006  -15.1140   27.0887 H   0  0  0  0  0  0  0  0  0  0  0  0
    3.0935  -17.4238   25.0632 H   0  0  0  0  0  0  0  0  0  0  0  0
    4.2192  -16.4419   26.1025 H   0  0  0  0  0  0  0  0  0  0  0  0
    1.8636  -18.1528   27.0769 H   0  0  0  0  0  0  0  0  0  0  0  0
    2.9414  -17.1502   28.1310 H   0  0  0  0  0  0  0  0  0  0  0  0
    5.9131  -12.0476   20.7211 H   0  0  0  0  0  0  0  0  0  0  0  0
    1.7266   -8.1893   16.6097 H   0  0  0  0  0  0  0  0  0  0  0  0
    0.6161   -8.1654   19.1352 H   0  0  0  0  0  0  0  0  0  0  0  0
    1.2725   -9.5218   21.5315 H   0  0  0  0  0  0  0  0  0  0  0  0
  1  2  2  0
  2  3  1  0
  3  4  1  0
  4  5  1  0
  5  6  1  0
  6  7  1  0
  7  8  2  0
  7  9  1  0
  9 10  1  0
 10 11  2  0
 11 12  1  0
 12 13  1  0
  6 14  1  0
 14 15  1  0
 15 16  1  0
  2 17  1  0
 17 18  1  0
 18 19  2  0
 19 20  1  0
 20 21  2  0
 21 22  1  0
 22 23  2  0
 23 24  1  0
 24 25  1  0
 13  9  2  0
 16 14  1  0
 25 17  2  0
 24 20  1  0
  3 26  1  0
  4 27  1  0
  4 28  1  0
  5 29  1  0
  5 30  1  0
 10 31  1  0
 12 32  1  0
 13 33  1  0
 14 34  1  0
 15 35  1  0
 15 36  1  0
 16 37  1  0
 16 38  1  0
 18 39  1  0
 22 40  1  0
 23 41  1  0
 25 42  1  0
M  END
>  <Energy>  (1059) 
815.81749481125564

>  <compound_id>  (1059) 
25649

>  <target_id>  (1059) 
1

>  <reference_id>  (1059) 
106

>  <inspiration_ids>  (1059) 
[106, 123]

>  <energy_score>  (1059) 
731.5208223149339

>  <distance_score>  (1059) 
14.249674362932945

>  <path>  (1059) 
/opt/xchem-fragalysis-2/maxwin/BulkDock/SCRATCH/511017/C25649-P106/C25649-P106.minimised.mol

>  <scratch_subdir>  (1059) 
/opt/xchem-fragalysis-2/maxwin/BulkDock/SCRATCH/511017/C25649-P106

>  <fragmenstein_runtime>  (1059) 
31.55760645866394

>  <fragmenstein_outcome>  (1059) 
too moved

>  <fragmenstein_mode>  (1059) 
expansion

>  <fragmenstein_error>  (1059) 


$$$$
C25649-P123
     RDKit          3D

 42 45  0  0  0  0  0  0  0  0999 V2000
    8.3713  -10.2034   25.6841 O   0  0  0  0  0  0  0  0  0  0  0  0
    7.8768   -9.3180   26.3232 C   0  0  0  0  0  0  0  0  0  0  0  0
    6.9515   -9.3605   27.4330 N   0  0  0  0  0  0  0  0  0  0  0  0
    6.3963  -10.5146   28.1971 C   0  0  0  0  0  0  0  0  0  0  0  0
    5.2068  -10.2904   29.1843 C   0  0  0  0  0  0  0  0  0  0  0  0
    4.1121  -11.5054   29.4685 N   0  0  0  0  0  0  0  0  0  0  0  0
    2.8028  -11.4731   30.1048 C   0  0  0  0  0  0  0  0  0  0  0  0
    2.2292  -10.5722   30.6611 O   0  0  0  0  0  0  0  0  0  0  0  0
    2.0140  -12.7613   30.0426 C   0  0  0  0  0  0  0  0  0  0  0  0
    2.1280  -13.9664   29.2960 C   0  0  0  0  0  0  0  0  0  0  0  0
    1.1803  -14.8788   29.5686 N   0  0  0  0  0  0  0  0  0  0  0  0
    0.4006  -14.2641   30.4659 N   0  0  0  0  0  0  0  0  0  0  0  0
    0.8512  -13.0133   30.7794 C   0  0  0  0  0  0  0  0  0  0  0  0
    5.2060  -11.9331   30.4976 C   0  0  0  0  0  0  0  0  0  0  0  0
    5.2131  -13.3829   30.9648 C   0  0  0  0  0  0  0  0  0  0  0  0
    6.3378  -12.8738   30.1368 C   0  0  0  0  0  0  0  0  0  0  0  0
    8.3922   -7.9345   25.9096 C   0  0  0  0  0  0  0  0  0  0  0  0
    9.8525   -7.8074   25.4978 C   0  0  0  0  0  0  0  0  0  0  0  0
   10.4507   -6.8043   24.9248 N   0  0  0  0  0  0  0  0  0  0  0  0
    9.6794   -5.7140   24.6725 C   0  0  0  0  0  0  0  0  0  0  0  0
   10.0025   -4.5956   24.0534 N   0  0  0  0  0  0  0  0  0  0  0  0
    8.8633   -3.8432   24.0144 C   0  0  0  0  0  0  0  0  0  0  0  0
    7.8248   -4.5092   24.6191 C   0  0  0  0  0  0  0  0  0  0  0  0
    8.3279   -5.7244   25.0064 N   0  0  0  0  0  0  0  0  0  0  0  0
    7.6898   -6.8256   25.6001 C   0  0  0  0  0  0  0  0  0  0  0  0
    6.8110   -8.4193   27.7821 H   0  0  0  0  0  0  0  0  0  0  0  0
    7.2564  -10.9028   28.7513 H   0  0  0  0  0  0  0  0  0  0  0  0
    6.1431  -11.2792   27.4583 H   0  0  0  0  0  0  0  0  0  0  0  0
    4.5518   -9.5545   28.7099 H   0  0  0  0  0  0  0  0  0  0  0  0
    5.4929   -9.7446   30.0971 H   0  0  0  0  0  0  0  0  0  0  0  0
    2.8806  -14.2179   28.5589 H   0  0  0  0  0  0  0  0  0  0  0  0
   -0.4173  -14.7522   30.8182 H   0  0  0  0  0  0  0  0  0  0  0  0
    0.3229  -12.3954   31.4923 H   0  0  0  0  0  0  0  0  0  0  0  0
    5.2760  -11.2685   31.3648 H   0  0  0  0  0  0  0  0  0  0  0  0
    4.5696  -14.1203   30.5046 H   0  0  0  0  0  0  0  0  0  0  0  0
    5.4017  -13.5762   32.0159 H   0  0  0  0  0  0  0  0  0  0  0  0
    6.4086  -13.2614   29.1260 H   0  0  0  0  0  0  0  0  0  0  0  0
    7.2967  -12.7313   30.6226 H   0  0  0  0  0  0  0  0  0  0  0  0
   10.4622   -8.7033   25.7115 H   0  0  0  0  0  0  0  0  0  0  0  0
    8.8575   -2.8550   23.5754 H   0  0  0  0  0  0  0  0  0  0  0  0
    6.8015   -4.2334   24.8115 H   0  0  0  0  0  0  0  0  0  0  0  0
    6.6151   -6.7558   25.7133 H   0  0  0  0  0  0  0  0  0  0  0  0
  1  2  2  0
  2  3  1  0
  3  4  1  0
  4  5  1  0
  5  6  1  0
  6  7  1  0
  7  8  2  0
  7  9  1  0
  9 10  1  0
 10 11  2  0
 11 12  1  0
 12 13  1  0
  6 14  1  0
 14 15  1  0
 15 16  1  0
  2 17  1  0
 17 18  1  0
 18 19  2  0
 19 20  1  0
 20 21  2  0
 21 22  1  0
 22 23  2  0
 23 24  1  0
 24 25  1  0
 13  9  2  0
 16 14  1  0
 25 17  2  0
 24 20  1  0
  3 26  1  0
  4 27  1  0
  4 28  1  0
  5 29  1  0
  5 30  1  0
 10 31  1  0
 12 32  1  0
 13 33  1  0
 14 34  1  0
 15 35  1  0
 15 36  1  0
 16 37  1  0
 16 38  1  0
 18 39  1  0
 22 40  1  0
 23 41  1  0
 25 42  1  0
M  END
>  <Energy>  (1060) 
117.59334676761284

>  <compound_id>  (1060) 
25649

>  <target_id>  (1060) 
1

>  <reference_id>  (1060) 
123

>  <inspiration_ids>  (1060) 
[106, 123]

>  <energy_score>  (1060) 
33.29667427129664

>  <distance_score>  (1060) 
15.534969298047704

>  <path>  (1060) 
/opt/xchem-fragalysis-2/maxwin/BulkDock/SCRATCH/511017/C25649-P123/C25649-P123.minimised.mol

>  <scratch_subdir>  (1060) 
/opt/xchem-fragalysis-2/maxwin/BulkDock/SCRATCH/511017/C25649-P123

>  <fragmenstein_runtime>  (1060) 
25.97025418281555

>  <fragmenstein_outcome>  (1060) 
too moved

>  <fragmenstein_mode>  (1060) 
expansion

>  <fragmenstein_error>  (1060) 


$$$$
C25652-P106
     RDKit          3D

 42 45  0  0  0  0  0  0  0  0999 V2000
   -1.6314  -15.3386   18.1142 O   0  0  0  0  0  0  0  0  0  0  0  0
   -0.8326  -16.1972   18.3535 C   0  0  0  0  0  0  0  0  0  0  0  0
    0.5911  -16.2735   18.0643 N   0  0  0  0  0  0  0  0  0  0  0  0
    1.5497  -15.2422   17.4546 C   0  0  0  0  0  0  0  0  0  0  0  0
    3.2488  -15.1895   17.8497 C   0  0  0  0  0  0  0  0  0  0  0  0
    4.1517  -13.7850   18.6387 N   0  0  0  0  0  0  0  0  0  0  0  0
    4.2949  -12.1355   18.1987 C   0  0  0  0  0  0  0  0  0  0  0  0
    3.6968  -11.6040   17.2673 O   0  0  0  0  0  0  0  0  0  0  0  0
    5.6070  -10.8126   19.0295 C   0  0  0  0  0  0  0  0  0  0  0  0
    5.3748   -9.6056   17.9217 C   0  0  0  0  0  0  0  0  0  0  0  0
    6.2308   -8.2361   16.8050 N   0  0  0  0  0  0  0  0  0  0  0  0
    6.5782   -7.1019   16.0480 C   0  0  0  0  0  0  0  0  0  0  0  0
    5.8502   -6.0102   16.0910 C   0  0  0  0  0  0  0  0  0  0  0  0
    5.0633   -5.7264   17.2107 C   0  0  0  0  0  0  0  0  0  0  0  0
    4.9598   -6.3843   18.2728 N   0  0  0  0  0  0  0  0  0  0  0  0
    5.2030   -7.6640   18.1623 C   0  0  0  0  0  0  0  0  0  0  0  0
    4.9963   -8.9951   18.9569 N   0  0  0  0  0  0  0  0  0  0  0  0
    3.8829  -15.9825   16.6020 C   0  0  0  0  0  0  0  0  0  0  0  0
    4.5653  -17.3543   16.6917 C   0  0  0  0  0  0  0  0  0  0  0  0
    3.2022  -17.2715   16.1199 C   0  0  0  0  0  0  0  0  0  0  0  0
   -1.3830  -17.3350   19.1808 C   0  0  0  0  0  0  0  0  0  0  0  0
   -2.5947  -17.2641   19.9634 C   0  0  0  0  0  0  0  0  0  0  0  0
   -2.8287  -18.3401   20.7243 N   0  0  0  0  0  0  0  0  0  0  0  0
   -1.8136  -19.1554   20.4048 N   0  0  0  0  0  0  0  0  0  0  0  0
   -0.9277  -18.6026   19.5050 C   0  0  0  0  0  0  0  0  0  0  0  0
    0.9328  -17.1795   18.3352 H   0  0  0  0  0  0  0  0  0  0  0  0
    1.4545  -15.4165   16.3759 H   0  0  0  0  0  0  0  0  0  0  0  0
    1.0974  -14.2696   17.6079 H   0  0  0  0  0  0  0  0  0  0  0  0
    3.5767  -15.9131   18.5517 H   0  0  0  0  0  0  0  0  0  0  0  0
    4.6835  -13.9442   19.4876 H   0  0  0  0  0  0  0  0  0  0  0  0
    6.8150  -10.1790   17.6813 H   0  0  0  0  0  0  0  0  0  0  0  0
    7.3073   -7.3696   15.3029 H   0  0  0  0  0  0  0  0  0  0  0  0
    5.7320   -5.1370   15.5118 H   0  0  0  0  0  0  0  0  0  0  0  0
    4.5399   -4.7695   17.1047 H   0  0  0  0  0  0  0  0  0  0  0  0
    4.1651  -15.3459   15.7759 H   0  0  0  0  0  0  0  0  0  0  0  0
    4.7077  -17.8072   17.6622 H   0  0  0  0  0  0  0  0  0  0  0  0
    5.3804  -17.5569   16.0029 H   0  0  0  0  0  0  0  0  0  0  0  0
    3.0850  -17.3923   15.0472 H   0  0  0  0  0  0  0  0  0  0  0  0
    2.4118  -17.7385   16.6901 H   0  0  0  0  0  0  0  0  0  0  0  0
   -3.2849  -16.4300   20.0059 H   0  0  0  0  0  0  0  0  0  0  0  0
   -1.7797  -20.0752   20.8334 H   0  0  0  0  0  0  0  0  0  0  0  0
   -0.0660  -19.1683   19.1848 H   0  0  0  0  0  0  0  0  0  0  0  0
  1  2  2  0
  2  3  1  0
  3  4  1  0
  4  5  1  0
  5  6  1  0
  6  7  1  0
  7  8  2  0
  7  9  1  0
  9 10  2  0
 10 11  1  0
 11 12  1  0
 12 13  2  0
 13 14  1  0
 14 15  2  0
 15 16  1  0
 16 17  2  0
  5 18  1  0
 18 19  1  0
 19 20  1  0
  2 21  1  0
 21 22  1  0
 22 23  2  0
 23 24  1  0
 24 25  1  0
 17  9  1  0
 20 18  1  0
 25 21  2  0
 16 11  1  0
  3 26  1  0
  4 27  1  0
  4 28  1  0
  5 29  1  0
  6 30  1  0
 10 31  1  0
 12 32  1  0
 13 33  1  0
 14 34  1  0
 18 35  1  0
 19 36  1  0
 19 37  1  0
 20 38  1  0
 20 39  1  0
 22 40  1  0
 24 41  1  0
 25 42  1  0
M  END
>  <Energy>  (1061) 
968.6251161461189

>  <compound_id>  (1061) 
25652

>  <target_id>  (1061) 
1

>  <reference_id>  (1061) 
106

>  <inspiration_ids>  (1061) 
[106, 123]

>  <energy_score>  (1061) 
896.5148411244625

>  <distance_score>  (1061) 
14.549986319926274

>  <path>  (1061) 
/opt/xchem-fragalysis-2/maxwin/BulkDock/SCRATCH/511017/C25652-P106/C25652-P106.minimised.mol

>  <scratch_subdir>  (1061) 
/opt/xchem-fragalysis-2/maxwin/BulkDock/SCRATCH/511017/C25652-P106

>  <fragmenstein_runtime>  (1061) 
29.4549458026886

>  <fragmenstein_outcome>  (1061) 
too moved

>  <fragmenstein_mode>  (1061) 
expansion

>  <fragmenstein_error>  (1061) 


$$$$
C25652-P123
     RDKit          3D

 42 45  0  0  0  0  0  0  0  0999 V2000
   -0.8521  -20.4989   21.3713 O   0  0  0  0  0  0  0  0  0  0  0  0
   -1.2642  -19.4186   21.6763 C   0  0  0  0  0  0  0  0  0  0  0  0
   -0.9603  -18.1081   21.1403 N   0  0  0  0  0  0  0  0  0  0  0  0
   -0.1218  -17.7007   19.9854 C   0  0  0  0  0  0  0  0  0  0  0  0
    0.8083  -16.1547   19.8166 C   0  0  0  0  0  0  0  0  0  0  0  0
    2.3186  -14.8256   19.9009 N   0  0  0  0  0  0  0  0  0  0  0  0
    3.2102  -14.0314   21.3469 C   0  0  0  0  0  0  0  0  0  0  0  0
    3.0203  -14.3206   22.5705 O   0  0  0  0  0  0  0  0  0  0  0  0
    4.4452  -12.5306   21.1235 C   0  0  0  0  0  0  0  0  0  0  0  0
    4.7840  -11.1667   22.1579 C   0  0  0  0  0  0  0  0  0  0  0  0
    6.5264  -10.8224   22.6423 N   0  0  0  0  0  0  0  0  0  0  0  0
    7.6380   -9.3583   23.4498 C   0  0  0  0  0  0  0  0  0  0  0  0
    7.3654   -7.6683   22.7224 C   0  0  0  0  0  0  0  0  0  0  0  0
    6.9354   -7.8487   20.6250 C   0  0  0  0  0  0  0  0  0  0  0  0
    7.0459   -9.6394   19.9591 N   0  0  0  0  0  0  0  0  0  0  0  0
    6.3299  -11.0601   20.8229 C   0  0  0  0  0  0  0  0  0  0  0  0
    5.7285  -12.2554   20.3867 N   0  0  0  0  0  0  0  0  0  0  0  0
    0.5102  -15.9900   18.1255 C   0  0  0  0  0  0  0  0  0  0  0  0
   -0.8803  -15.7202   17.5870 C   0  0  0  0  0  0  0  0  0  0  0  0
   -0.1431  -16.9580   17.1513 C   0  0  0  0  0  0  0  0  0  0  0  0
   -2.2598  -19.4255   22.8034 C   0  0  0  0  0  0  0  0  0  0  0  0
   -3.1673  -18.4714   23.3407 C   0  0  0  0  0  0  0  0  0  0  0  0
   -3.9011  -18.9282   24.3671 N   0  0  0  0  0  0  0  0  0  0  0  0
   -3.4878  -20.1970   24.5047 N   0  0  0  0  0  0  0  0  0  0  0  0
   -2.5308  -20.5408   23.5974 C   0  0  0  0  0  0  0  0  0  0  0  0
   -1.4319  -17.4078   21.6946 H   0  0  0  0  0  0  0  0  0  0  0  0
    0.2639  -18.5878   19.4673 H   0  0  0  0  0  0  0  0  0  0  0  0
   -0.9949  -17.4683   19.3713 H   0  0  0  0  0  0  0  0  0  0  0  0
    0.1346  -15.9894   20.6206 H   0  0  0  0  0  0  0  0  0  0  0  0
    2.7157  -14.4784   19.0313 H   0  0  0  0  0  0  0  0  0  0  0  0
    4.0110  -10.7997   22.7449 H   0  0  0  0  0  0  0  0  0  0  0  0
    7.8944   -9.5442   24.4899 H   0  0  0  0  0  0  0  0  0  0  0  0
    7.7379   -6.7172   23.0865 H   0  0  0  0  0  0  0  0  0  0  0  0
    7.4941   -7.0793   20.0302 H   0  0  0  0  0  0  0  0  0  0  0  0
    1.3252  -15.4381   17.6516 H   0  0  0  0  0  0  0  0  0  0  0  0
   -1.7404  -15.8245   18.2352 H   0  0  0  0  0  0  0  0  0  0  0  0
   -0.9892  -14.9190   16.8635 H   0  0  0  0  0  0  0  0  0  0  0  0
    0.2434  -16.9684   16.1340 H   0  0  0  0  0  0  0  0  0  0  0  0
   -0.5324  -17.9243   17.4357 H   0  0  0  0  0  0  0  0  0  0  0  0
   -3.3290  -17.4507   23.0203 H   0  0  0  0  0  0  0  0  0  0  0  0
   -3.9049  -20.7716   25.2302 H   0  0  0  0  0  0  0  0  0  0  0  0
   -2.1108  -21.5373   23.5760 H   0  0  0  0  0  0  0  0  0  0  0  0
  1  2  2  0
  2  3  1  0
  3  4  1  0
  4  5  1  0
  5  6  1  0
  6  7  1  0
  7  8  2  0
  7  9  1  0
  9 10  2  0
 10 11  1  0
 11 12  1  0
 12 13  2  0
 13 14  1  0
 14 15  2  0
 15 16  1  0
 16 17  2  0
  5 18  1  0
 18 19  1  0
 19 20  1  0
  2 21  1  0
 21 22  1  0
 22 23  2  0
 23 24  1  0
 24 25  1  0
 17  9  1  0
 20 18  1  0
 25 21  2  0
 16 11  1  0
  3 26  1  0
  4 27  1  0
  4 28  1  0
  5 29  1  0
  6 30  1  0
 10 31  1  0
 12 32  1  0
 13 33  1  0
 14 34  1  0
 18 35  1  0
 19 36  1  0
 19 37  1  0
 20 38  1  0
 20 39  1  0
 22 40  1  0
 24 41  1  0
 25 42  1  0
M  END
>  <Energy>  (1062) 
1270.3041145285865

>  <compound_id>  (1062) 
25652

>  <target_id>  (1062) 
1

>  <reference_id>  (1062) 
123

>  <inspiration_ids>  (1062) 
[106, 123]

>  <energy_score>  (1062) 
1198.193839506965

>  <distance_score>  (1062) 
13.438797189660642

>  <path>  (1062) 
/opt/xchem-fragalysis-2/maxwin/BulkDock/SCRATCH/511017/C25652-P123/C25652-P123.minimised.mol

>  <scratch_subdir>  (1062) 
/opt/xchem-fragalysis-2/maxwin/BulkDock/SCRATCH/511017/C25652-P123

>  <fragmenstein_runtime>  (1062) 
25.30065393447876

>  <fragmenstein_outcome>  (1062) 
too moved

>  <fragmenstein_mode>  (1062) 
expansion

>  <fragmenstein_error>  (1062) 


$$$$
C25648-P106
     RDKit          3D

 42 45  0  0  0  0  0  0  0  0999 V2000
   -1.2247  -17.4857   16.6527 O   0  0  0  0  0  0  0  0  0  0  0  0
   -0.6289  -17.1935   17.6472 C   0  0  0  0  0  0  0  0  0  0  0  0
    0.5890  -16.4347   17.8265 N   0  0  0  0  0  0  0  0  0  0  0  0
    1.5430  -15.8591   16.8292 C   0  0  0  0  0  0  0  0  0  0  0  0
    1.0610  -14.8527   15.7003 C   0  0  0  0  0  0  0  0  0  0  0  0
    2.0896  -13.8426   15.2194 N   0  0  0  0  0  0  0  0  0  0  0  0
    2.2063  -13.1329   13.9621 C   0  0  0  0  0  0  0  0  0  0  0  0
    1.5657  -13.2217   12.9515 O   0  0  0  0  0  0  0  0  0  0  0  0
    3.2421  -11.9973   13.9028 C   0  0  0  0  0  0  0  0  0  0  0  0
    2.7856  -10.5968   13.5292 C   0  0  0  0  0  0  0  0  0  0  0  0
    3.5010   -9.5814   13.1365 N   0  0  0  0  0  0  0  0  0  0  0  0
    4.8385   -9.8021   13.0304 C   0  0  0  0  0  0  0  0  0  0  0  0
    5.7846   -8.9723   12.6410 N   0  0  0  0  0  0  0  0  0  0  0  0
    6.9258   -9.7156   12.5954 C   0  0  0  0  0  0  0  0  0  0  0  0
    6.7228  -10.9737   13.1116 C   0  0  0  0  0  0  0  0  0  0  0  0
    5.3719  -11.0475   13.3636 N   0  0  0  0  0  0  0  0  0  0  0  0
    4.5797  -12.1336   13.7737 C   0  0  0  0  0  0  0  0  0  0  0  0
   -0.1860  -14.1087   16.1252 C   0  0  0  0  0  0  0  0  0  0  0  0
   -0.9746  -13.2370   15.1723 C   0  0  0  0  0  0  0  0  0  0  0  0
   -1.5431  -14.5472   15.6243 C   0  0  0  0  0  0  0  0  0  0  0  0
   -1.2457  -17.6629   18.9523 C   0  0  0  0  0  0  0  0  0  0  0  0
   -2.5529  -18.2385   19.1350 C   0  0  0  0  0  0  0  0  0  0  0  0
   -2.8447  -18.5696   20.4018 N   0  0  0  0  0  0  0  0  0  0  0  0
   -1.7282  -18.2400   21.0638 N   0  0  0  0  0  0  0  0  0  0  0  0
   -0.7597  -17.6974   20.2526 C   0  0  0  0  0  0  0  0  0  0  0  0
    0.8492  -16.4549   18.8036 H   0  0  0  0  0  0  0  0  0  0  0  0
    2.3014  -15.3486   17.4351 H   0  0  0  0  0  0  0  0  0  0  0  0
    2.0441  -16.7068   16.3484 H   0  0  0  0  0  0  0  0  0  0  0  0
    0.8182  -15.4472   14.8104 H   0  0  0  0  0  0  0  0  0  0  0  0
    2.7475  -13.4508   15.8819 H   0  0  0  0  0  0  0  0  0  0  0  0
    1.6932  -10.4502   13.5977 H   0  0  0  0  0  0  0  0  0  0  0  0
    7.8218   -9.3084   12.1574 H   0  0  0  0  0  0  0  0  0  0  0  0
    7.3761  -11.8245   13.2363 H   0  0  0  0  0  0  0  0  0  0  0  0
    5.0816  -13.0862   13.8772 H   0  0  0  0  0  0  0  0  0  0  0  0
   -0.1516  -13.8139   17.1638 H   0  0  0  0  0  0  0  0  0  0  0  0
   -0.6852  -13.1703   14.1302 H   0  0  0  0  0  0  0  0  0  0  0  0
   -1.4284  -12.3322   15.5605 H   0  0  0  0  0  0  0  0  0  0  0  0
   -2.3724  -14.5331   16.3228 H   0  0  0  0  0  0  0  0  0  0  0  0
   -1.6010  -15.3524   14.8990 H   0  0  0  0  0  0  0  0  0  0  0  0
   -3.2932  -18.4165   18.3636 H   0  0  0  0  0  0  0  0  0  0  0  0
   -1.6864  -18.4060   22.0645 H   0  0  0  0  0  0  0  0  0  0  0  0
    0.1822  -17.3998   20.6845 H   0  0  0  0  0  0  0  0  0  0  0  0
  1  2  2  0
  2  3  1  0
  3  4  1  0
  4  5  1  0
  5  6  1  0
  6  7  1  0
  7  8  2  0
  7  9  1  0
  9 10  1  0
 10 11  2  0
 11 12  1  0
 12 13  2  0
 13 14  1  0
 14 15  2  0
 15 16  1  0
 16 17  1  0
  5 18  1  0
 18 19  1  0
 19 20  1  0
  2 21  1  0
 21 22  1  0
 22 23  2  0
 23 24  1  0
 24 25  1  0
 17  9  2  0
 20 18  1  0
 25 21  2  0
 16 12  1  0
  3 26  1  0
  4 27  1  0
  4 28  1  0
  5 29  1  0
  6 30  1  0
 10 31  1  0
 14 32  1  0
 15 33  1  0
 17 34  1  0
 18 35  1  0
 19 36  1  0
 19 37  1  0
 20 38  1  0
 20 39  1  0
 22 40  1  0
 24 41  1  0
 25 42  1  0
M  END
>  <Energy>  (1063) 
52.162054860539385

>  <compound_id>  (1063) 
25648

>  <target_id>  (1063) 
1

>  <reference_id>  (1063) 
106

>  <inspiration_ids>  (1063) 
[106, 123]

>  <energy_score>  (1063) 
-2.8052071292524943

>  <distance_score>  (1063) 
16.058696153412175

>  <path>  (1063) 
/opt/xchem-fragalysis-2/maxwin/BulkDock/SCRATCH/511017/C25648-P106/C25648-P106.minimised.mol

>  <scratch_subdir>  (1063) 
/opt/xchem-fragalysis-2/maxwin/BulkDock/SCRATCH/511017/C25648-P106

>  <fragmenstein_runtime>  (1063) 
56.52653932571411

>  <fragmenstein_outcome>  (1063) 
too moved

>  <fragmenstein_mode>  (1063) 
expansion

>  <fragmenstein_error>  (1063) 


$$$$
C25648-P123
     RDKit          3D

 42 45  0  0  0  0  0  0  0  0999 V2000
   -2.5482  -13.1032   21.1542 O   0  0  0  0  0  0  0  0  0  0  0  0
   -3.6461  -12.6727   20.9629 C   0  0  0  0  0  0  0  0  0  0  0  0
   -4.0859  -11.5232   20.2111 N   0  0  0  0  0  0  0  0  0  0  0  0
   -3.3075  -10.4478   19.5138 C   0  0  0  0  0  0  0  0  0  0  0  0
   -2.7524  -10.7886   18.0854 C   0  0  0  0  0  0  0  0  0  0  0  0
   -1.6943   -9.9005   17.5081 N   0  0  0  0  0  0  0  0  0  0  0  0
   -1.7572   -8.9024   16.4559 C   0  0  0  0  0  0  0  0  0  0  0  0
   -2.6930   -8.4780   15.8353 O   0  0  0  0  0  0  0  0  0  0  0  0
   -0.3776   -8.3594   15.9672 C   0  0  0  0  0  0  0  0  0  0  0  0
   -0.3069   -7.3034   14.8634 C   0  0  0  0  0  0  0  0  0  0  0  0
    0.7340   -6.8894   14.1911 N   0  0  0  0  0  0  0  0  0  0  0  0
    1.9097   -7.5146   14.4678 C   0  0  0  0  0  0  0  0  0  0  0  0
    3.0782   -7.4413   13.8663 N   0  0  0  0  0  0  0  0  0  0  0  0
    3.9184   -8.2820   14.5529 C   0  0  0  0  0  0  0  0  0  0  0  0
    3.2643   -8.8598   15.6093 C   0  0  0  0  0  0  0  0  0  0  0  0
    1.9750   -8.4012   15.5275 N   0  0  0  0  0  0  0  0  0  0  0  0
    0.8708   -8.7421   16.3012 C   0  0  0  0  0  0  0  0  0  0  0  0
   -3.8757  -10.9765   17.0983 C   0  0  0  0  0  0  0  0  0  0  0  0
   -4.5650  -12.3116   16.9464 C   0  0  0  0  0  0  0  0  0  0  0  0
   -3.6673  -11.8053   15.8532 C   0  0  0  0  0  0  0  0  0  0  0  0
   -4.7252  -13.4207   21.7095 C   0  0  0  0  0  0  0  0  0  0  0  0
   -6.0972  -13.1834   22.0021 C   0  0  0  0  0  0  0  0  0  0  0  0
   -6.6620  -14.1114   22.7920 N   0  0  0  0  0  0  0  0  0  0  0  0
   -5.6661  -14.9793   23.0216 N   0  0  0  0  0  0  0  0  0  0  0  0
   -4.5036  -14.6134   22.4071 C   0  0  0  0  0  0  0  0  0  0  0  0
   -5.0973  -11.5068   20.1948 H   0  0  0  0  0  0  0  0  0  0  0  0
   -2.4606  -10.2174   20.1697 H   0  0  0  0  0  0  0  0  0  0  0  0
   -3.9553   -9.5659   19.4708 H   0  0  0  0  0  0  0  0  0  0  0  0
   -2.2297  -11.7488   18.1925 H   0  0  0  0  0  0  0  0  0  0  0  0
   -0.7455   -9.9486   17.8636 H   0  0  0  0  0  0  0  0  0  0  0  0
   -1.2760   -6.8299   14.6282 H   0  0  0  0  0  0  0  0  0  0  0  0
    4.9436   -8.4243   14.2402 H   0  0  0  0  0  0  0  0  0  0  0  0
    3.5562   -9.5680   16.3704 H   0  0  0  0  0  0  0  0  0  0  0  0
    1.1116   -9.3426   17.1501 H   0  0  0  0  0  0  0  0  0  0  0  0
   -4.4846  -10.0831   16.9989 H   0  0  0  0  0  0  0  0  0  0  0  0
   -5.6330  -12.3140   16.7593 H   0  0  0  0  0  0  0  0  0  0  0  0
   -4.2155  -13.1549   17.5314 H   0  0  0  0  0  0  0  0  0  0  0  0
   -2.7124  -12.2973   15.7086 H   0  0  0  0  0  0  0  0  0  0  0  0
   -4.1231  -11.4488   14.9358 H   0  0  0  0  0  0  0  0  0  0  0  0
   -6.7123  -12.3512   21.6849 H   0  0  0  0  0  0  0  0  0  0  0  0
   -5.8463  -15.7907   23.6052 H   0  0  0  0  0  0  0  0  0  0  0  0
   -3.6070  -15.2100   22.5142 H   0  0  0  0  0  0  0  0  0  0  0  0
  1  2  2  0
  2  3  1  0
  3  4  1  0
  4  5  1  0
  5  6  1  0
  6  7  1  0
  7  8  2  0
  7  9  1  0
  9 10  1  0
 10 11  2  0
 11 12  1  0
 12 13  2  0
 13 14  1  0
 14 15  2  0
 15 16  1  0
 16 17  1  0
  5 18  1  0
 18 19  1  0
 19 20  1  0
  2 21  1  0
 21 22  1  0
 22 23  2  0
 23 24  1  0
 24 25  1  0
 17  9  2  0
 20 18  1  0
 25 21  2  0
 16 12  1  0
  3 26  1  0
  4 27  1  0
  4 28  1  0
  5 29  1  0
  6 30  1  0
 10 31  1  0
 14 32  1  0
 15 33  1  0
 17 34  1  0
 18 35  1  0
 19 36  1  0
 19 37  1  0
 20 38  1  0
 20 39  1  0
 22 40  1  0
 24 41  1  0
 25 42  1  0
M  END
>  <Energy>  (1064) 
49.701403941684354

>  <compound_id>  (1064) 
25648

>  <target_id>  (1064) 
1

>  <reference_id>  (1064) 
123

>  <inspiration_ids>  (1064) 
[106, 123]

>  <energy_score>  (1064) 
-5.2658580481022454

>  <distance_score>  (1064) 
15.484368806583173

>  <path>  (1064) 
/opt/xchem-fragalysis-2/maxwin/BulkDock/SCRATCH/511017/C25648-P123/C25648-P123.minimised.mol

>  <scratch_subdir>  (1064) 
/opt/xchem-fragalysis-2/maxwin/BulkDock/SCRATCH/511017/C25648-P123

>  <fragmenstein_runtime>  (1064) 
65.15007996559143

>  <fragmenstein_outcome>  (1064) 
too moved

>  <fragmenstein_mode>  (1064) 
expansion

>  <fragmenstein_error>  (1064) 


$$$$
C25653-P106
     RDKit          3D

 42 45  0  0  0  0  0  0  0  0999 V2000
    2.1336  -11.7363   23.1012 O   0  0  0  0  0  0  0  0  0  0  0  0
    1.0025  -11.6448   22.6684 C   0  0  0  0  0  0  0  0  0  0  0  0
   -0.0938  -12.5708   22.7309 N   0  0  0  0  0  0  0  0  0  0  0  0
   -0.2634  -14.0832   23.5360 C   0  0  0  0  0  0  0  0  0  0  0  0
   -0.8620  -14.3570   25.2601 C   0  0  0  0  0  0  0  0  0  0  0  0
   -1.8502  -15.6110   25.6417 N   0  0  0  0  0  0  0  0  0  0  0  0
   -3.2796  -15.7449   25.5442 C   0  0  0  0  0  0  0  0  0  0  0  0
   -4.1208  -14.9381   25.2398 O   0  0  0  0  0  0  0  0  0  0  0  0
   -3.7792  -17.0794   25.9940 C   0  0  0  0  0  0  0  0  0  0  0  0
   -5.1451  -17.4327   26.2341 C   0  0  0  0  0  0  0  0  0  0  0  0
   -5.3032  -18.6392   26.7908 N   0  0  0  0  0  0  0  0  0  0  0  0
   -4.0412  -19.0756   26.9320 N   0  0  0  0  0  0  0  0  0  0  0  0
   -3.1047  -18.2037   26.4405 C   0  0  0  0  0  0  0  0  0  0  0  0
   -1.4278  -15.1758   27.1247 C   0  0  0  0  0  0  0  0  0  0  0  0
   -1.9986  -13.9868   27.8748 C   0  0  0  0  0  0  0  0  0  0  0  0
   -2.3443  -15.3659   28.3250 C   0  0  0  0  0  0  0  0  0  0  0  0
    0.1751  -10.2656   21.8677 C   0  0  0  0  0  0  0  0  0  0  0  0
   -1.1341  -10.2674   21.3944 C   0  0  0  0  0  0  0  0  0  0  0  0
   -1.3295   -9.1204   20.7264 N   0  0  0  0  0  0  0  0  0  0  0  0
   -2.3511   -9.0294   19.8079 C   0  0  0  0  0  0  0  0  0  0  0  0
   -2.0068   -8.7386   18.5606 C   0  0  0  0  0  0  0  0  0  0  0  0
   -0.5642   -8.4024   18.4052 C   0  0  0  0  0  0  0  0  0  0  0  0
    0.3232   -8.2507   19.3436 N   0  0  0  0  0  0  0  0  0  0  0  0
   -0.0614   -8.6216   20.5812 C   0  0  0  0  0  0  0  0  0  0  0  0
    0.7130   -9.0284   21.5424 N   0  0  0  0  0  0  0  0  0  0  0  0
   -0.8993  -12.1347   22.3435 H   0  0  0  0  0  0  0  0  0  0  0  0
   -0.7790  -14.7735   22.8301 H   0  0  0  0  0  0  0  0  0  0  0  0
    0.7949  -14.1564   23.8541 H   0  0  0  0  0  0  0  0  0  0  0  0
   -1.4345  -13.4757   25.5756 H   0  0  0  0  0  0  0  0  0  0  0  0
    0.0779  -14.4211   25.8212 H   0  0  0  0  0  0  0  0  0  0  0  0
   -6.0191  -16.8209   26.0469 H   0  0  0  0  0  0  0  0  0  0  0  0
   -3.8863  -19.9727   27.3808 H   0  0  0  0  0  0  0  0  0  0  0  0
   -2.0494  -18.4257   26.5092 H   0  0  0  0  0  0  0  0  0  0  0  0
   -0.4286  -15.5565   27.3586 H   0  0  0  0  0  0  0  0  0  0  0  0
   -1.3152  -13.4053   28.4830 H   0  0  0  0  0  0  0  0  0  0  0  0
   -2.7928  -13.4038   27.4218 H   0  0  0  0  0  0  0  0  0  0  0  0
   -1.8964  -15.7240   29.2469 H   0  0  0  0  0  0  0  0  0  0  0  0
   -3.3820  -15.6550   28.2268 H   0  0  0  0  0  0  0  0  0  0  0  0
   -1.8489  -11.0497   21.2056 H   0  0  0  0  0  0  0  0  0  0  0  0
   -3.3297   -9.4032   20.0765 H   0  0  0  0  0  0  0  0  0  0  0  0
   -2.6945   -8.8031   17.7388 H   0  0  0  0  0  0  0  0  0  0  0  0
   -0.2173   -8.2626   17.3745 H   0  0  0  0  0  0  0  0  0  0  0  0
  1  2  2  0
  2  3  1  0
  3  4  1  0
  4  5  1  0
  5  6  1  0
  6  7  1  0
  7  8  2  0
  7  9  1  0
  9 10  1  0
 10 11  2  0
 11 12  1  0
 12 13  1  0
  6 14  1  0
 14 15  1  0
 15 16  1  0
  2 17  1  0
 17 18  2  0
 18 19  1  0
 19 20  1  0
 20 21  2  0
 21 22  1  0
 22 23  2  0
 23 24  1  0
 24 25  2  0
 13  9  2  0
 16 14  1  0
 25 17  1  0
 24 19  1  0
  3 26  1  0
  4 27  1  0
  4 28  1  0
  5 29  1  0
  5 30  1  0
 10 31  1  0
 12 32  1  0
 13 33  1  0
 14 34  1  0
 15 35  1  0
 15 36  1  0
 16 37  1  0
 16 38  1  0
 18 39  1  0
 20 40  1  0
 21 41  1  0
 22 42  1  0
M  END
>  <Energy>  (1065) 
269.02613563009874

>  <compound_id>  (1065) 
25653

>  <target_id>  (1065) 
1

>  <reference_id>  (1065) 
106

>  <inspiration_ids>  (1065) 
[106, 123]

>  <energy_score>  (1065) 
151.50879908060472

>  <distance_score>  (1065) 
15.136522662144898

>  <path>  (1065) 
/opt/xchem-fragalysis-2/maxwin/BulkDock/SCRATCH/511017/C25653-P106/C25653-P106.minimised.mol

>  <scratch_subdir>  (1065) 
/opt/xchem-fragalysis-2/maxwin/BulkDock/SCRATCH/511017/C25653-P106

>  <fragmenstein_runtime>  (1065) 
39.86139917373657

>  <fragmenstein_outcome>  (1065) 
too moved

>  <fragmenstein_mode>  (1065) 
expansion

>  <fragmenstein_error>  (1065) 


$$$$
C25653-P123
     RDKit          3D

 42 45  0  0  0  0  0  0  0  0999 V2000
    2.5859  -15.2435   17.6066 O   0  0  0  0  0  0  0  0  0  0  0  0
    2.8340  -14.8842   18.7285 C   0  0  0  0  0  0  0  0  0  0  0  0
    1.8566  -15.3049   20.1816 N   0  0  0  0  0  0  0  0  0  0  0  0
    0.2187  -16.3804   20.3597 C   0  0  0  0  0  0  0  0  0  0  0  0
   -1.4946  -16.3543   19.8505 C   0  0  0  0  0  0  0  0  0  0  0  0
   -2.6960  -16.8845   20.8984 N   0  0  0  0  0  0  0  0  0  0  0  0
   -2.9512  -16.5581   22.2684 C   0  0  0  0  0  0  0  0  0  0  0  0
   -2.3195  -15.8918   23.0386 O   0  0  0  0  0  0  0  0  0  0  0  0
   -4.1439  -17.2006   22.8780 C   0  0  0  0  0  0  0  0  0  0  0  0
   -5.3464  -17.7465   22.3707 C   0  0  0  0  0  0  0  0  0  0  0  0
   -6.1955  -18.1559   23.3265 N   0  0  0  0  0  0  0  0  0  0  0  0
   -5.5370  -17.8906   24.4657 N   0  0  0  0  0  0  0  0  0  0  0  0
   -4.3144  -17.3416   24.2541 C   0  0  0  0  0  0  0  0  0  0  0  0
   -1.8774  -18.2060   20.7980 C   0  0  0  0  0  0  0  0  0  0  0  0
   -2.6923  -19.4968   20.8398 C   0  0  0  0  0  0  0  0  0  0  0  0
   -1.9128  -19.1651   19.6202 C   0  0  0  0  0  0  0  0  0  0  0  0
    4.4177  -13.9874   18.7540 C   0  0  0  0  0  0  0  0  0  0  0  0
    4.9636  -13.0278   19.6770 C   0  0  0  0  0  0  0  0  0  0  0  0
    6.3739  -13.0303   19.6764 N   0  0  0  0  0  0  0  0  0  0  0  0
    7.2751  -12.0630   20.1179 C   0  0  0  0  0  0  0  0  0  0  0  0
    8.5756  -12.1469   19.8174 C   0  0  0  0  0  0  0  0  0  0  0  0
    8.9516  -13.3803   19.0774 C   0  0  0  0  0  0  0  0  0  0  0  0
    8.1749  -14.3677   18.7357 N   0  0  0  0  0  0  0  0  0  0  0  0
    6.8296  -14.2156   18.9954 C   0  0  0  0  0  0  0  0  0  0  0  0
    5.7329  -14.8738   18.5162 N   0  0  0  0  0  0  0  0  0  0  0  0
    2.2375  -14.7987   21.0092 H   0  0  0  0  0  0  0  0  0  0  0  0
   -0.0841  -16.3109   21.4099 H   0  0  0  0  0  0  0  0  0  0  0  0
    0.4088  -17.3925   20.0749 H   0  0  0  0  0  0  0  0  0  0  0  0
   -1.6761  -16.8673   18.9048 H   0  0  0  0  0  0  0  0  0  0  0  0
   -1.8319  -15.3288   19.6787 H   0  0  0  0  0  0  0  0  0  0  0  0
   -5.6479  -17.8364   21.3346 H   0  0  0  0  0  0  0  0  0  0  0  0
   -5.9805  -18.1026   25.3529 H   0  0  0  0  0  0  0  0  0  0  0  0
   -3.6699  -17.0620   25.0768 H   0  0  0  0  0  0  0  0  0  0  0  0
   -1.0801  -18.2628   21.5339 H   0  0  0  0  0  0  0  0  0  0  0  0
   -2.3345  -20.3022   21.4718 H   0  0  0  0  0  0  0  0  0  0  0  0
   -3.7706  -19.4597   20.7502 H   0  0  0  0  0  0  0  0  0  0  0  0
   -2.4832  -18.9119   18.7330 H   0  0  0  0  0  0  0  0  0  0  0  0
   -1.0170  -19.7402   19.4125 H   0  0  0  0  0  0  0  0  0  0  0  0
    4.4916  -12.5466   20.5003 H   0  0  0  0  0  0  0  0  0  0  0  0
    6.8507  -11.2647   20.6811 H   0  0  0  0  0  0  0  0  0  0  0  0
    9.3308  -11.4306   20.1007 H   0  0  0  0  0  0  0  0  0  0  0  0
   10.0254  -13.4633   18.8397 H   0  0  0  0  0  0  0  0  0  0  0  0
  1  2  2  0
  2  3  1  0
  3  4  1  0
  4  5  1  0
  5  6  1  0
  6  7  1  0
  7  8  2  0
  7  9  1  0
  9 10  1  0
 10 11  2  0
 11 12  1  0
 12 13  1  0
  6 14  1  0
 14 15  1  0
 15 16  1  0
  2 17  1  0
 17 18  2  0
 18 19  1  0
 19 20  1  0
 20 21  2  0
 21 22  1  0
 22 23  2  0
 23 24  1  0
 24 25  2  0
 13  9  2  0
 16 14  1  0
 25 17  1  0
 24 19  1  0
  3 26  1  0
  4 27  1  0
  4 28  1  0
  5 29  1  0
  5 30  1  0
 10 31  1  0
 12 32  1  0
 13 33  1  0
 14 34  1  0
 15 35  1  0
 15 36  1  0
 16 37  1  0
 16 38  1  0
 18 39  1  0
 20 40  1  0
 21 41  1  0
 22 42  1  0
M  END
>  <Energy>  (1066) 
371.60364458951676

>  <compound_id>  (1066) 
25653

>  <target_id>  (1066) 
1

>  <reference_id>  (1066) 
123

>  <inspiration_ids>  (1066) 
[106, 123]

>  <energy_score>  (1066) 
254.08630804002405

>  <distance_score>  (1066) 
14.250293153696992

>  <path>  (1066) 
/opt/xchem-fragalysis-2/maxwin/BulkDock/SCRATCH/511017/C25653-P123/C25653-P123.minimised.mol

>  <scratch_subdir>  (1066) 
/opt/xchem-fragalysis-2/maxwin/BulkDock/SCRATCH/511017/C25653-P123

>  <fragmenstein_runtime>  (1066) 
39.82811999320984

>  <fragmenstein_outcome>  (1066) 
too moved

>  <fragmenstein_mode>  (1066) 
expansion

>  <fragmenstein_error>  (1066) 


$$$$
C25654-P106
     RDKit          3D

 42 45  0  0  0  0  0  0  0  0999 V2000
   -0.9656   -7.1605   27.5008 O   0  0  0  0  0  0  0  0  0  0  0  0
   -1.8155   -7.1731   26.6604 C   0  0  0  0  0  0  0  0  0  0  0  0
   -2.0433   -6.2902   25.5395 N   0  0  0  0  0  0  0  0  0  0  0  0
   -1.3493   -5.0201   25.1264 C   0  0  0  0  0  0  0  0  0  0  0  0
    0.0086   -5.2551   24.3761 C   0  0  0  0  0  0  0  0  0  0  0  0
    0.8381   -4.1629   23.7912 N   0  0  0  0  0  0  0  0  0  0  0  0
    0.7793   -3.5165   22.5009 C   0  0  0  0  0  0  0  0  0  0  0  0
   -0.0021   -3.6372   21.6047 O   0  0  0  0  0  0  0  0  0  0  0  0
    1.9686   -2.6098   22.1977 C   0  0  0  0  0  0  0  0  0  0  0  0
    2.3975   -2.3302   20.8989 C   0  0  0  0  0  0  0  0  0  0  0  0
    3.5939   -1.6732   20.9963 N   0  0  0  0  0  0  0  0  0  0  0  0
    4.4463   -1.2017   20.0001 C   0  0  0  0  0  0  0  0  0  0  0  0
    5.5722   -0.5586   20.3401 C   0  0  0  0  0  0  0  0  0  0  0  0
    5.7995   -0.4477   21.8060 C   0  0  0  0  0  0  0  0  0  0  0  0
    5.0199   -0.8862   22.7480 N   0  0  0  0  0  0  0  0  0  0  0  0
    3.8653   -1.5159   22.3515 C   0  0  0  0  0  0  0  0  0  0  0  0
    2.9106   -2.0872   23.0853 N   0  0  0  0  0  0  0  0  0  0  0  0
   -2.2670   -4.1335   24.3186 C   0  0  0  0  0  0  0  0  0  0  0  0
   -3.1768   -4.6552   23.2320 C   0  0  0  0  0  0  0  0  0  0  0  0
   -3.7672   -4.1106   24.5056 C   0  0  0  0  0  0  0  0  0  0  0  0
   -2.8231   -8.2994   26.7976 C   0  0  0  0  0  0  0  0  0  0  0  0
   -2.9018   -9.2273   27.9008 C   0  0  0  0  0  0  0  0  0  0  0  0
   -3.8487  -10.1643   27.7715 N   0  0  0  0  0  0  0  0  0  0  0  0
   -4.4212   -9.8572   26.6020 N   0  0  0  0  0  0  0  0  0  0  0  0
   -3.8475   -8.7662   25.9831 C   0  0  0  0  0  0  0  0  0  0  0  0
   -2.8083   -6.6489   24.9883 H   0  0  0  0  0  0  0  0  0  0  0  0
   -1.1135   -4.4983   26.0619 H   0  0  0  0  0  0  0  0  0  0  0  0
    0.6812   -5.7974   25.0518 H   0  0  0  0  0  0  0  0  0  0  0  0
   -0.1912   -5.9352   23.5412 H   0  0  0  0  0  0  0  0  0  0  0  0
    1.5956   -3.7538   24.3323 H   0  0  0  0  0  0  0  0  0  0  0  0
    1.9681   -2.6058   19.9461 H   0  0  0  0  0  0  0  0  0  0  0  0
    4.1440   -1.3728   18.9749 H   0  0  0  0  0  0  0  0  0  0  0  0
    6.2792   -0.1459   19.6392 H   0  0  0  0  0  0  0  0  0  0  0  0
    6.7323    0.0651   22.0944 H   0  0  0  0  0  0  0  0  0  0  0  0
   -1.7982   -3.1684   24.1400 H   0  0  0  0  0  0  0  0  0  0  0  0
   -3.2336   -5.7192   23.0441 H   0  0  0  0  0  0  0  0  0  0  0  0
   -3.2611   -4.0563   22.3298 H   0  0  0  0  0  0  0  0  0  0  0  0
   -4.2307   -4.7994   25.2009 H   0  0  0  0  0  0  0  0  0  0  0  0
   -4.2639   -3.1466   24.4601 H   0  0  0  0  0  0  0  0  0  0  0  0
   -2.2731   -9.2362   28.7842 H   0  0  0  0  0  0  0  0  0  0  0  0
   -5.1984  -10.4271   26.2813 H   0  0  0  0  0  0  0  0  0  0  0  0
   -4.2265   -8.4336   25.0280 H   0  0  0  0  0  0  0  0  0  0  0  0
  1  2  2  0
  2  3  1  0
  3  4  1  0
  4  5  1  0
  5  6  1  0
  6  7  1  0
  7  8  2  0
  7  9  1  0
  9 10  2  0
 10 11  1  0
 11 12  1  0
 12 13  2  0
 13 14  1  0
 14 15  2  0
 15 16  1  0
 16 17  2  0
  4 18  1  0
 18 19  1  0
 19 20  1  0
  2 21  1  0
 21 22  1  0
 22 23  2  0
 23 24  1  0
 24 25  1  0
 17  9  1  0
 20 18  1  0
 25 21  2  0
 16 11  1  0
  3 26  1  0
  4 27  1  0
  5 28  1  0
  5 29  1  0
  6 30  1  0
 10 31  1  0
 12 32  1  0
 13 33  1  0
 14 34  1  0
 18 35  1  0
 19 36  1  0
 19 37  1  0
 20 38  1  0
 20 39  1  0
 22 40  1  0
 24 41  1  0
 25 42  1  0
M  END
>  <Energy>  (1067) 
66.150963765572683

>  <compound_id>  (1067) 
25654

>  <target_id>  (1067) 
1

>  <reference_id>  (1067) 
106

>  <inspiration_ids>  (1067) 
[106, 123]

>  <energy_score>  (1067) 
-22.217835126562477

>  <distance_score>  (1067) 
15.528580918569109

>  <path>  (1067) 
/opt/xchem-fragalysis-2/maxwin/BulkDock/SCRATCH/511017/C25654-P106/C25654-P106.minimised.mol

>  <scratch_subdir>  (1067) 
/opt/xchem-fragalysis-2/maxwin/BulkDock/SCRATCH/511017/C25654-P106

>  <fragmenstein_runtime>  (1067) 
52.08573126792908

>  <fragmenstein_outcome>  (1067) 
too moved

>  <fragmenstein_mode>  (1067) 
expansion

>  <fragmenstein_error>  (1067) 


$$$$
C25654-P123
     RDKit          3D

 42 45  0  0  0  0  0  0  0  0999 V2000
   -3.3149   -8.8661   23.8172 O   0  0  0  0  0  0  0  0  0  0  0  0
   -3.2315   -8.4926   24.9514 C   0  0  0  0  0  0  0  0  0  0  0  0
   -2.6316   -7.2971   25.5096 N   0  0  0  0  0  0  0  0  0  0  0  0
   -2.0111   -6.0971   24.8403 C   0  0  0  0  0  0  0  0  0  0  0  0
   -0.5914   -6.3113   24.1900 C   0  0  0  0  0  0  0  0  0  0  0  0
    0.0967   -5.1930   23.4711 N   0  0  0  0  0  0  0  0  0  0  0  0
    0.5420   -3.9067   23.9328 C   0  0  0  0  0  0  0  0  0  0  0  0
    0.4048   -3.3680   24.9928 O   0  0  0  0  0  0  0  0  0  0  0  0
    1.4143   -3.1905   22.8947 C   0  0  0  0  0  0  0  0  0  0  0  0
    2.3473   -2.2016   23.1963 C   0  0  0  0  0  0  0  0  0  0  0  0
    3.0923   -1.9867   22.0636 N   0  0  0  0  0  0  0  0  0  0  0  0
    4.2198   -1.1869   21.8746 C   0  0  0  0  0  0  0  0  0  0  0  0
    4.7902   -1.1254   20.6644 C   0  0  0  0  0  0  0  0  0  0  0  0
    4.0916   -1.9224   19.6185 C   0  0  0  0  0  0  0  0  0  0  0  0
    3.0516   -2.6854   19.7780 N   0  0  0  0  0  0  0  0  0  0  0  0
    2.5387   -2.7634   21.0484 C   0  0  0  0  0  0  0  0  0  0  0  0
    1.5469   -3.5085   21.5352 N   0  0  0  0  0  0  0  0  0  0  0  0
   -3.0039   -5.5666   23.8389 C   0  0  0  0  0  0  0  0  0  0  0  0
   -4.2536   -4.8555   24.3001 C   0  0  0  0  0  0  0  0  0  0  0  0
   -3.1611   -4.0827   23.6162 C   0  0  0  0  0  0  0  0  0  0  0  0
   -3.8281   -9.4416   25.9679 C   0  0  0  0  0  0  0  0  0  0  0  0
   -4.6229  -10.6071   25.6706 C   0  0  0  0  0  0  0  0  0  0  0  0
   -4.9797  -11.3221   26.7441 N   0  0  0  0  0  0  0  0  0  0  0  0
   -4.4257  -10.6451   27.7571 N   0  0  0  0  0  0  0  0  0  0  0  0
   -3.7405   -9.5204   27.3506 C   0  0  0  0  0  0  0  0  0  0  0  0
   -2.8191   -7.2666   26.5024 H   0  0  0  0  0  0  0  0  0  0  0  0
   -1.8858   -5.3652   25.6483 H   0  0  0  0  0  0  0  0  0  0  0  0
   -0.6448   -7.1400   23.4757 H   0  0  0  0  0  0  0  0  0  0  0  0
    0.0991   -6.6224   24.9828 H   0  0  0  0  0  0  0  0  0  0  0  0
    0.4675   -5.3556   22.5353 H   0  0  0  0  0  0  0  0  0  0  0  0
    2.5773   -1.7160   24.1337 H   0  0  0  0  0  0  0  0  0  0  0  0
    4.5922   -0.6485   22.7361 H   0  0  0  0  0  0  0  0  0  0  0  0
    5.6642   -0.5467   20.4130 H   0  0  0  0  0  0  0  0  0  0  0  0
    4.5054   -1.8122   18.6052 H   0  0  0  0  0  0  0  0  0  0  0  0
   -3.0987   -6.2150   22.9736 H   0  0  0  0  0  0  0  0  0  0  0  0
   -5.1691   -5.0379   23.7483 H   0  0  0  0  0  0  0  0  0  0  0  0
   -4.4015   -4.6896   25.3608 H   0  0  0  0  0  0  0  0  0  0  0  0
   -2.5726   -3.3971   24.2160 H   0  0  0  0  0  0  0  0  0  0  0  0
   -3.3329   -3.7420   22.6010 H   0  0  0  0  0  0  0  0  0  0  0  0
   -4.9357  -10.9464   24.6898 H   0  0  0  0  0  0  0  0  0  0  0  0
   -4.5495  -11.0004   28.7005 H   0  0  0  0  0  0  0  0  0  0  0  0
   -3.2412   -8.9050   28.0845 H   0  0  0  0  0  0  0  0  0  0  0  0
  1  2  2  0
  2  3  1  0
  3  4  1  0
  4  5  1  0
  5  6  1  0
  6  7  1  0
  7  8  2  0
  7  9  1  0
  9 10  2  0
 10 11  1  0
 11 12  1  0
 12 13  2  0
 13 14  1  0
 14 15  2  0
 15 16  1  0
 16 17  2  0
  4 18  1  0
 18 19  1  0
 19 20  1  0
  2 21  1  0
 21 22  1  0
 22 23  2  0
 23 24  1  0
 24 25  1  0
 17  9  1  0
 20 18  1  0
 25 21  2  0
 16 11  1  0
  3 26  1  0
  4 27  1  0
  5 28  1  0
  5 29  1  0
  6 30  1  0
 10 31  1  0
 12 32  1  0
 13 33  1  0
 14 34  1  0
 18 35  1  0
 19 36  1  0
 19 37  1  0
 20 38  1  0
 20 39  1  0
 22 40  1  0
 24 41  1  0
 25 42  1  0
M  END
>  <Energy>  (1068) 
62.527356994004819

>  <compound_id>  (1068) 
25654

>  <target_id>  (1068) 
1

>  <reference_id>  (1068) 
123

>  <inspiration_ids>  (1068) 
[106, 123]

>  <energy_score>  (1068) 
-25.841441898132643

>  <distance_score>  (1068) 
15.115696753045372

>  <path>  (1068) 
/opt/xchem-fragalysis-2/maxwin/BulkDock/SCRATCH/511017/C25654-P123/C25654-P123.minimised.mol

>  <scratch_subdir>  (1068) 
/opt/xchem-fragalysis-2/maxwin/BulkDock/SCRATCH/511017/C25654-P123

>  <fragmenstein_runtime>  (1068) 
42.541656732559204

>  <fragmenstein_outcome>  (1068) 
too moved

>  <fragmenstein_mode>  (1068) 
expansion

>  <fragmenstein_error>  (1068) 


$$$$
C25655-P106
     RDKit          3D

 41 43  0  0  0  0  0  0  0  0999 V2000
   -2.2139   -7.6632   17.6132 C   0  0  0  0  0  0  0  0  0  0  0  0
   -1.3516   -8.7337   18.3188 C   0  0  0  0  0  0  0  0  0  0  0  0
   -2.2202  -10.1500   18.2527 C   0  0  0  0  0  0  0  0  0  0  0  0
   -2.9576  -10.9129   19.4509 N   0  0  0  0  0  0  0  0  0  0  0  0
   -3.9493   -9.8293   19.2467 C   0  0  0  0  0  0  0  0  0  0  0  0
   -3.6253  -12.2043   19.4810 C   0  0  0  0  0  0  0  0  0  0  0  0
   -3.8661  -12.9772   18.5916 O   0  0  0  0  0  0  0  0  0  0  0  0
   -4.0632  -12.6985   20.8372 C   0  0  0  0  0  0  0  0  0  0  0  0
   -4.5749  -12.0668   22.0015 C   0  0  0  0  0  0  0  0  0  0  0  0
   -4.9290  -12.9135   22.9827 N   0  0  0  0  0  0  0  0  0  0  0  0
   -4.6893  -14.1242   22.4535 N   0  0  0  0  0  0  0  0  0  0  0  0
   -4.1824  -14.0479   21.1871 C   0  0  0  0  0  0  0  0  0  0  0  0
    0.0793   -8.5082   17.6412 N   0  0  0  0  0  0  0  0  0  0  0  0
    1.4789   -8.6420   18.2149 C   0  0  0  0  0  0  0  0  0  0  0  0
    1.8321   -9.0208   19.2701 O   0  0  0  0  0  0  0  0  0  0  0  0
    2.7425   -8.1053   17.3775 C   0  0  0  0  0  0  0  0  0  0  0  0
    2.3220   -8.0296   15.7847 C   0  0  0  0  0  0  0  0  0  0  0  0
    2.6237   -7.2137   14.8233 N   0  0  0  0  0  0  0  0  0  0  0  0
    3.2875   -6.0754   15.1393 C   0  0  0  0  0  0  0  0  0  0  0  0
    2.9567   -4.8588   14.6857 N   0  0  0  0  0  0  0  0  0  0  0  0
    3.5775   -3.8470   15.4111 C   0  0  0  0  0  0  0  0  0  0  0  0
    4.2978   -4.3924   16.4902 C   0  0  0  0  0  0  0  0  0  0  0  0
    4.3604   -6.0079   16.4025 N   0  0  0  0  0  0  0  0  0  0  0  0
    4.1395   -7.1412   17.6716 C   0  0  0  0  0  0  0  0  0  0  0  0
   -1.7211   -6.6854   17.6169 H   0  0  0  0  0  0  0  0  0  0  0  0
   -2.3657   -7.9323   16.5612 H   0  0  0  0  0  0  0  0  0  0  0  0
   -3.1974   -7.5300   18.0666 H   0  0  0  0  0  0  0  0  0  0  0  0
   -1.1877   -8.5251   19.3762 H   0  0  0  0  0  0  0  0  0  0  0  0
   -1.5201  -10.9559   18.0481 H   0  0  0  0  0  0  0  0  0  0  0  0
   -2.8014  -10.2038   17.3141 H   0  0  0  0  0  0  0  0  0  0  0  0
   -4.7842  -10.0448   19.9289 H   0  0  0  0  0  0  0  0  0  0  0  0
   -4.4529   -9.8072   18.2695 H   0  0  0  0  0  0  0  0  0  0  0  0
   -3.5859   -8.8661   19.6176 H   0  0  0  0  0  0  0  0  0  0  0  0
   -4.7150  -11.0071   22.1677 H   0  0  0  0  0  0  0  0  0  0  0  0
   -4.8957  -14.9522   23.0049 H   0  0  0  0  0  0  0  0  0  0  0  0
   -3.9587  -14.9422   20.6210 H   0  0  0  0  0  0  0  0  0  0  0  0
    0.1392   -8.2269   16.6720 H   0  0  0  0  0  0  0  0  0  0  0  0
    1.6855   -8.8436   15.4655 H   0  0  0  0  0  0  0  0  0  0  0  0
    3.3020   -2.8119   15.2546 H   0  0  0  0  0  0  0  0  0  0  0  0
    4.1485   -4.0178   17.4879 H   0  0  0  0  0  0  0  0  0  0  0  0
    4.7285   -6.8156   18.4918 H   0  0  0  0  0  0  0  0  0  0  0  0
  1  2  1  0
  2  3  1  0
  3  4  1  0
  4  5  1  0
  4  6  1  0
  6  7  2  0
  6  8  1  0
  8  9  1  0
  9 10  2  0
 10 11  1  0
 11 12  1  0
  2 13  1  0
 13 14  1  0
 14 15  2  0
 14 16  1  0
 16 17  1  0
 17 18  2  0
 18 19  1  0
 19 20  2  0
 20 21  1  0
 21 22  2  0
 22 23  1  0
 23 24  1  0
 12  8  2  0
 24 16  2  0
 23 19  1  0
  1 25  1  0
  1 26  1  0
  1 27  1  0
  2 28  1  0
  3 29  1  0
  3 30  1  0
  5 31  1  0
  5 32  1  0
  5 33  1  0
  9 34  1  0
 11 35  1  0
 12 36  1  0
 13 37  1  0
 17 38  1  0
 21 39  1  0
 22 40  1  0
 24 41  1  0
M  END
>  <Energy>  (1069) 
326.7392377481799

>  <compound_id>  (1069) 
25655

>  <target_id>  (1069) 
1

>  <reference_id>  (1069) 
106

>  <inspiration_ids>  (1069) 
[106, 123]

>  <energy_score>  (1069) 
267.6980505263915

>  <distance_score>  (1069) 
15.172369075620892

>  <path>  (1069) 
/opt/xchem-fragalysis-2/maxwin/BulkDock/SCRATCH/511017/C25655-P106/C25655-P106.minimised.mol

>  <scratch_subdir>  (1069) 
/opt/xchem-fragalysis-2/maxwin/BulkDock/SCRATCH/511017/C25655-P106

>  <fragmenstein_runtime>  (1069) 
33.34603309631348

>  <fragmenstein_outcome>  (1069) 
too moved

>  <fragmenstein_mode>  (1069) 
expansion

>  <fragmenstein_error>  (1069) 


$$$$
C25655-P123
     RDKit          3D

 41 43  0  0  0  0  0  0  0  0999 V2000
   -0.4501  -15.9255   24.2861 C   0  0  0  0  0  0  0  0  0  0  0  0
    0.9485  -15.5864   24.8137 C   0  0  0  0  0  0  0  0  0  0  0  0
    0.9148  -15.0535   26.2947 C   0  0  0  0  0  0  0  0  0  0  0  0
    0.0659  -15.9857   27.2251 N   0  0  0  0  0  0  0  0  0  0  0  0
    0.7144  -15.1494   28.2921 C   0  0  0  0  0  0  0  0  0  0  0  0
   -1.3544  -16.0512   27.4438 C   0  0  0  0  0  0  0  0  0  0  0  0
   -2.2394  -15.3483   27.0354 O   0  0  0  0  0  0  0  0  0  0  0  0
   -1.7456  -17.1691   28.3399 C   0  0  0  0  0  0  0  0  0  0  0  0
   -3.0186  -17.3771   28.9531 C   0  0  0  0  0  0  0  0  0  0  0  0
   -3.0462  -18.4410   29.7648 N   0  0  0  0  0  0  0  0  0  0  0  0
   -1.8261  -18.9709   29.6260 N   0  0  0  0  0  0  0  0  0  0  0  0
   -1.0143  -18.2531   28.7934 C   0  0  0  0  0  0  0  0  0  0  0  0
    1.6149  -14.7020   23.8111 N   0  0  0  0  0  0  0  0  0  0  0  0
    2.8879  -13.9596   23.8682 C   0  0  0  0  0  0  0  0  0  0  0  0
    3.7273  -13.9567   24.7091 O   0  0  0  0  0  0  0  0  0  0  0  0
    3.3335  -12.6903   22.4740 C   0  0  0  0  0  0  0  0  0  0  0  0
    3.6691  -13.3400   20.9887 C   0  0  0  0  0  0  0  0  0  0  0  0
    4.0460  -13.1158   19.7106 N   0  0  0  0  0  0  0  0  0  0  0  0
    5.0928  -12.3844   19.7136 C   0  0  0  0  0  0  0  0  0  0  0  0
    5.8226  -11.7450   18.8585 N   0  0  0  0  0  0  0  0  0  0  0  0
    6.6998  -11.2384   19.6530 C   0  0  0  0  0  0  0  0  0  0  0  0
    6.5246  -12.1058   20.6799 C   0  0  0  0  0  0  0  0  0  0  0  0
    5.2727  -11.7558   20.8956 N   0  0  0  0  0  0  0  0  0  0  0  0
    4.2090  -11.6277   22.1483 C   0  0  0  0  0  0  0  0  0  0  0  0
   -0.4173  -16.2329   23.2355 H   0  0  0  0  0  0  0  0  0  0  0  0
   -1.1161  -15.0588   24.3485 H   0  0  0  0  0  0  0  0  0  0  0  0
   -0.8995  -16.7536   24.8407 H   0  0  0  0  0  0  0  0  0  0  0  0
    1.5331  -16.5128   24.8427 H   0  0  0  0  0  0  0  0  0  0  0  0
    0.4469  -14.0621   26.2629 H   0  0  0  0  0  0  0  0  0  0  0  0
    1.9816  -14.9949   26.5596 H   0  0  0  0  0  0  0  0  0  0  0  0
    0.2914  -15.4959   29.2469 H   0  0  0  0  0  0  0  0  0  0  0  0
    0.4431  -14.0826   28.2782 H   0  0  0  0  0  0  0  0  0  0  0  0
    1.7886  -15.3472   28.4175 H   0  0  0  0  0  0  0  0  0  0  0  0
   -3.9103  -16.7692   28.8495 H   0  0  0  0  0  0  0  0  0  0  0  0
   -1.6048  -19.8148   30.1439 H   0  0  0  0  0  0  0  0  0  0  0  0
    0.0042  -18.5593   28.6034 H   0  0  0  0  0  0  0  0  0  0  0  0
    1.1830  -14.5432   22.9249 H   0  0  0  0  0  0  0  0  0  0  0  0
    4.6803  -13.7162   21.1118 H   0  0  0  0  0  0  0  0  0  0  0  0
    7.5282  -10.6525   19.2864 H   0  0  0  0  0  0  0  0  0  0  0  0
    7.2234  -12.7153   21.1832 H   0  0  0  0  0  0  0  0  0  0  0  0
    4.7610  -10.9045   22.7155 H   0  0  0  0  0  0  0  0  0  0  0  0
  1  2  1  0
  2  3  1  0
  3  4  1  0
  4  5  1  0
  4  6  1  0
  6  7  2  0
  6  8  1  0
  8  9  1  0
  9 10  2  0
 10 11  1  0
 11 12  1  0
  2 13  1  0
 13 14  1  0
 14 15  2  0
 14 16  1  0
 16 17  1  0
 17 18  2  0
 18 19  1  0
 19 20  2  0
 20 21  1  0
 21 22  2  0
 22 23  1  0
 23 24  1  0
 12  8  2  0
 24 16  2  0
 23 19  1  0
  1 25  1  0
  1 26  1  0
  1 27  1  0
  2 28  1  0
  3 29  1  0
  3 30  1  0
  5 31  1  0
  5 32  1  0
  5 33  1  0
  9 34  1  0
 11 35  1  0
 12 36  1  0
 13 37  1  0
 17 38  1  0
 21 39  1  0
 22 40  1  0
 24 41  1  0
M  END
>  <Energy>  (1070) 
407.30160299560987

>  <compound_id>  (1070) 
25655

>  <target_id>  (1070) 
1

>  <reference_id>  (1070) 
123

>  <inspiration_ids>  (1070) 
[106, 123]

>  <energy_score>  (1070) 
348.2604157738167

>  <distance_score>  (1070) 
14.271374219119863

>  <path>  (1070) 
/opt/xchem-fragalysis-2/maxwin/BulkDock/SCRATCH/511017/C25655-P123/C25655-P123.minimised.mol

>  <scratch_subdir>  (1070) 
/opt/xchem-fragalysis-2/maxwin/BulkDock/SCRATCH/511017/C25655-P123

>  <fragmenstein_runtime>  (1070) 
42.60311460494995

>  <fragmenstein_outcome>  (1070) 
too moved

>  <fragmenstein_mode>  (1070) 
expansion

>  <fragmenstein_error>  (1070) 


$$$$
C25656-P106
     RDKit          3D

 37 39  0  0  0  0  0  0  0  0999 V2000
    6.0386  -14.9700   29.9001 O   0  0  0  0  0  0  0  0  0  0  0  0
    5.2909  -14.7946   28.9740 C   0  0  0  0  0  0  0  0  0  0  0  0
    3.9859  -15.4348   28.6502 N   0  0  0  0  0  0  0  0  0  0  0  0
    3.1254  -16.4560   29.4536 C   0  0  0  0  0  0  0  0  0  0  0  0
    1.6377  -16.9206   28.9850 C   0  0  0  0  0  0  0  0  0  0  0  0
    0.7711  -17.9603   29.8592 C   0  0  0  0  0  0  0  0  0  0  0  0
   -0.7003  -18.1998   29.3468 C   0  0  0  0  0  0  0  0  0  0  0  0
   -1.5972  -19.1369   30.1397 C   0  0  0  0  0  0  0  0  0  0  0  0
   -1.7038  -20.5515   30.0480 C   0  0  0  0  0  0  0  0  0  0  0  0
   -2.6671  -21.0700   30.8164 N   0  0  0  0  0  0  0  0  0  0  0  0
   -3.2123  -19.9930   31.4059 N   0  0  0  0  0  0  0  0  0  0  0  0
   -2.6030  -18.8210   31.0374 C   0  0  0  0  0  0  0  0  0  0  0  0
    5.9425  -13.7210   27.9243 C   0  0  0  0  0  0  0  0  0  0  0  0
    6.8876  -14.3087   26.8942 C   0  0  0  0  0  0  0  0  0  0  0  0
    7.6396  -13.4559   26.1710 C   0  0  0  0  0  0  0  0  0  0  0  0
    7.4833  -12.0915   26.3292 N   0  0  0  0  0  0  0  0  0  0  0  0
    8.0747  -11.0485   25.6567 C   0  0  0  0  0  0  0  0  0  0  0  0
    7.5301   -9.9154   26.2080 C   0  0  0  0  0  0  0  0  0  0  0  0
    6.6310  -10.2463   27.2044 N   0  0  0  0  0  0  0  0  0  0  0  0
    6.6040  -11.5719   27.2773 C   0  0  0  0  0  0  0  0  0  0  0  0
    5.8431  -12.4115   28.0979 N   0  0  0  0  0  0  0  0  0  0  0  0
    3.5899  -14.9861   27.8352 H   0  0  0  0  0  0  0  0  0  0  0  0
    3.0481  -16.0294   30.4600 H   0  0  0  0  0  0  0  0  0  0  0  0
    3.7533  -17.3501   29.5350 H   0  0  0  0  0  0  0  0  0  0  0  0
    1.0468  -16.0090   28.9503 H   0  0  0  0  0  0  0  0  0  0  0  0
    1.7328  -17.3271   27.9739 H   0  0  0  0  0  0  0  0  0  0  0  0
    1.3071  -18.9161   29.8848 H   0  0  0  0  0  0  0  0  0  0  0  0
    0.7319  -17.5851   30.8888 H   0  0  0  0  0  0  0  0  0  0  0  0
   -0.6413  -18.5767   28.3175 H   0  0  0  0  0  0  0  0  0  0  0  0
   -1.1975  -17.2230   29.2856 H   0  0  0  0  0  0  0  0  0  0  0  0
   -1.1160  -21.2221   29.4340 H   0  0  0  0  0  0  0  0  0  0  0  0
   -4.0157  -20.1223   32.0166 H   0  0  0  0  0  0  0  0  0  0  0  0
   -2.9591  -17.8756   31.4212 H   0  0  0  0  0  0  0  0  0  0  0  0
    6.9749  -15.3854   26.8340 H   0  0  0  0  0  0  0  0  0  0  0  0
    8.3796  -13.7864   25.4542 H   0  0  0  0  0  0  0  0  0  0  0  0
    8.7930  -11.2008   24.8652 H   0  0  0  0  0  0  0  0  0  0  0  0
    7.7189   -8.8825   25.9430 H   0  0  0  0  0  0  0  0  0  0  0  0
  1  2  2  0
  2  3  1  0
  3  4  1  0
  4  5  1  0
  5  6  1  0
  6  7  1  0
  7  8  1  0
  8  9  1  0
  9 10  2  0
 10 11  1  0
 11 12  1  0
  2 13  1  0
 13 14  1  0
 14 15  2  0
 15 16  1  0
 16 17  1  0
 17 18  2  0
 18 19  1  0
 19 20  2  0
 20 21  1  0
 12  8  2  0
 21 13  2  0
 20 16  1  0
  3 22  1  0
  4 23  1  0
  4 24  1  0
  5 25  1  0
  5 26  1  0
  6 27  1  0
  6 28  1  0
  7 29  1  0
  7 30  1  0
  9 31  1  0
 11 32  1  0
 12 33  1  0
 14 34  1  0
 15 35  1  0
 17 36  1  0
 18 37  1  0
M  END
>  <Energy>  (1071) 
95.075710970788194

>  <compound_id>  (1071) 
25656

>  <target_id>  (1071) 
1

>  <reference_id>  (1071) 
106

>  <inspiration_ids>  (1071) 
[106, 123]

>  <energy_score>  (1071) 
16.177005361923477

>  <distance_score>  (1071) 
15.193864378783333

>  <path>  (1071) 
/opt/xchem-fragalysis-2/maxwin/BulkDock/SCRATCH/511017/C25656-P106/C25656-P106.minimised.mol

>  <scratch_subdir>  (1071) 
/opt/xchem-fragalysis-2/maxwin/BulkDock/SCRATCH/511017/C25656-P106

>  <fragmenstein_runtime>  (1071) 
23.990756034851074

>  <fragmenstein_outcome>  (1071) 
too moved

>  <fragmenstein_mode>  (1071) 
expansion

>  <fragmenstein_error>  (1071) 


$$$$
C25656-P123
     RDKit          3D

 37 39  0  0  0  0  0  0  0  0999 V2000
   -5.2000   -8.5260   23.0578 O   0  0  0  0  0  0  0  0  0  0  0  0
   -4.2225   -8.9882   23.5819 C   0  0  0  0  0  0  0  0  0  0  0  0
   -4.0911  -10.0352   24.6229 N   0  0  0  0  0  0  0  0  0  0  0  0
   -5.1542  -10.7840   25.4297 C   0  0  0  0  0  0  0  0  0  0  0  0
   -5.3007  -12.3849   25.3261 C   0  0  0  0  0  0  0  0  0  0  0  0
   -6.1740  -13.1509   26.4119 C   0  0  0  0  0  0  0  0  0  0  0  0
   -6.3366  -14.6722   26.1100 C   0  0  0  0  0  0  0  0  0  0  0  0
   -6.9954  -15.5244   27.1609 C   0  0  0  0  0  0  0  0  0  0  0  0
   -8.3206  -16.0308   27.1743 C   0  0  0  0  0  0  0  0  0  0  0  0
   -8.5537  -16.8578   28.1942 N   0  0  0  0  0  0  0  0  0  0  0  0
   -7.3933  -16.8571   28.8730 N   0  0  0  0  0  0  0  0  0  0  0  0
   -6.4274  -16.0956   28.2833 C   0  0  0  0  0  0  0  0  0  0  0  0
   -2.8558   -8.3574   22.9540 C   0  0  0  0  0  0  0  0  0  0  0  0
   -2.4399   -8.9196   21.6077 C   0  0  0  0  0  0  0  0  0  0  0  0
   -1.4383   -8.3040   20.9542 C   0  0  0  0  0  0  0  0  0  0  0  0
   -0.8419   -7.1895   21.5093 N   0  0  0  0  0  0  0  0  0  0  0  0
    0.0808   -6.3286   20.9696 C   0  0  0  0  0  0  0  0  0  0  0  0
    0.2227   -5.3344   21.9043 C   0  0  0  0  0  0  0  0  0  0  0  0
   -0.5551   -5.5933   23.0107 N   0  0  0  0  0  0  0  0  0  0  0  0
   -1.2198   -6.7133   22.7655 C   0  0  0  0  0  0  0  0  0  0  0  0
   -2.2253   -7.3403   23.5083 N   0  0  0  0  0  0  0  0  0  0  0  0
   -3.1259  -10.1162   24.8887 H   0  0  0  0  0  0  0  0  0  0  0  0
   -4.9351  -10.5352   26.4736 H   0  0  0  0  0  0  0  0  0  0  0  0
   -6.1172  -10.3324   25.1694 H   0  0  0  0  0  0  0  0  0  0  0  0
   -4.2921  -12.8125   25.3427 H   0  0  0  0  0  0  0  0  0  0  0  0
   -5.7450  -12.6088   24.3521 H   0  0  0  0  0  0  0  0  0  0  0  0
   -5.7001  -13.0158   27.3913 H   0  0  0  0  0  0  0  0  0  0  0  0
   -7.1640  -12.6829   26.4643 H   0  0  0  0  0  0  0  0  0  0  0  0
   -6.8943  -14.7774   25.1703 H   0  0  0  0  0  0  0  0  0  0  0  0
   -5.3397  -15.0903   25.9162 H   0  0  0  0  0  0  0  0  0  0  0  0
   -9.1131  -15.8459   26.4603 H   0  0  0  0  0  0  0  0  0  0  0  0
   -7.3230  -17.4158   29.7199 H   0  0  0  0  0  0  0  0  0  0  0  0
   -5.4331  -16.0360   28.7027 H   0  0  0  0  0  0  0  0  0  0  0  0
   -2.9986   -9.7502   21.1947 H   0  0  0  0  0  0  0  0  0  0  0  0
   -1.1075   -8.6037   19.9687 H   0  0  0  0  0  0  0  0  0  0  0  0
    0.5161   -6.4823   19.9935 H   0  0  0  0  0  0  0  0  0  0  0  0
    0.8495   -4.4534   21.8546 H   0  0  0  0  0  0  0  0  0  0  0  0
  1  2  2  0
  2  3  1  0
  3  4  1  0
  4  5  1  0
  5  6  1  0
  6  7  1  0
  7  8  1  0
  8  9  1  0
  9 10  2  0
 10 11  1  0
 11 12  1  0
  2 13  1  0
 13 14  1  0
 14 15  2  0
 15 16  1  0
 16 17  1  0
 17 18  2  0
 18 19  1  0
 19 20  2  0
 20 21  1  0
 12  8  2  0
 21 13  2  0
 20 16  1  0
  3 22  1  0
  4 23  1  0
  4 24  1  0
  5 25  1  0
  5 26  1  0
  6 27  1  0
  6 28  1  0
  7 29  1  0
  7 30  1  0
  9 31  1  0
 11 32  1  0
 12 33  1  0
 14 34  1  0
 15 35  1  0
 17 36  1  0
 18 37  1  0
M  END
>  <Energy>  (1072) 
84.167588050584172

>  <compound_id>  (1072) 
25656

>  <target_id>  (1072) 
1

>  <reference_id>  (1072) 
123

>  <inspiration_ids>  (1072) 
[106, 123]

>  <energy_score>  (1072) 
5.268882441719143

>  <distance_score>  (1072) 
14.998243720283329

>  <path>  (1072) 
/opt/xchem-fragalysis-2/maxwin/BulkDock/SCRATCH/511017/C25656-P123/C25656-P123.minimised.mol

>  <scratch_subdir>  (1072) 
/opt/xchem-fragalysis-2/maxwin/BulkDock/SCRATCH/511017/C25656-P123

>  <fragmenstein_runtime>  (1072) 
21.967074155807495

>  <fragmenstein_outcome>  (1072) 
too moved

>  <fragmenstein_mode>  (1072) 
expansion

>  <fragmenstein_error>  (1072) 


$$$$
C25657-P106
     RDKit          3D

 44 46  0  0  0  0  0  0  0  0999 V2000
   10.0911  -21.4904   24.1074 C   0  0  0  0  0  0  0  0  0  0  0  0
    9.2157  -20.7056   25.1088 C   0  0  0  0  0  0  0  0  0  0  0  0
    7.9933  -19.9859   24.5323 N   0  0  0  0  0  0  0  0  0  0  0  0
    8.3090  -19.4484   23.2158 C   0  0  0  0  0  0  0  0  0  0  0  0
    8.1861  -19.9378   22.1226 O   0  0  0  0  0  0  0  0  0  0  0  0
    8.7784  -17.9592   23.4239 C   0  0  0  0  0  0  0  0  0  0  0  0
    7.9703  -16.5158   23.6435 C   0  0  0  0  0  0  0  0  0  0  0  0
    8.4258  -15.3508   24.7270 N   0  0  0  0  0  0  0  0  0  0  0  0
    8.8268  -14.1421   24.1416 C   0  0  0  0  0  0  0  0  0  0  0  0
    8.8564  -12.8630   24.2366 N   0  0  0  0  0  0  0  0  0  0  0  0
    8.4559  -12.4163   22.9625 C   0  0  0  0  0  0  0  0  0  0  0  0
    8.2845  -13.5532   21.4809 C   0  0  0  0  0  0  0  0  0  0  0  0
    8.8789  -14.7627   22.9717 N   0  0  0  0  0  0  0  0  0  0  0  0
    9.2030  -16.8296   22.8439 C   0  0  0  0  0  0  0  0  0  0  0  0
    7.2689  -21.3481   24.9600 C   0  0  0  0  0  0  0  0  0  0  0  0
    6.8318  -21.2365   26.4589 C   0  0  0  0  0  0  0  0  0  0  0  0
    5.8836  -21.5289   24.1442 C   0  0  0  0  0  0  0  0  0  0  0  0
    4.6586  -21.9886   24.8714 N   0  0  0  0  0  0  0  0  0  0  0  0
    3.6131  -21.2388   25.5393 C   0  0  0  0  0  0  0  0  0  0  0  0
    3.5069  -20.0661   25.7461 O   0  0  0  0  0  0  0  0  0  0  0  0
    2.4699  -22.0652   26.0601 C   0  0  0  0  0  0  0  0  0  0  0  0
    1.3151  -21.5493   26.7506 C   0  0  0  0  0  0  0  0  0  0  0  0
    0.4345  -22.4859   27.1243 N   0  0  0  0  0  0  0  0  0  0  0  0
    0.9921  -23.6172   26.6735 N   0  0  0  0  0  0  0  0  0  0  0  0
    2.1976  -23.4236   26.0394 C   0  0  0  0  0  0  0  0  0  0  0  0
   10.9056  -21.9870   24.6454 H   0  0  0  0  0  0  0  0  0  0  0  0
   10.5545  -20.8209   23.3751 H   0  0  0  0  0  0  0  0  0  0  0  0
    9.5333  -22.2533   23.5577 H   0  0  0  0  0  0  0  0  0  0  0  0
    9.1506  -21.2496   26.0568 H   0  0  0  0  0  0  0  0  0  0  0  0
    9.8564  -19.8593   25.4047 H   0  0  0  0  0  0  0  0  0  0  0  0
    6.8270  -16.7256   23.6833 H   0  0  0  0  0  0  0  0  0  0  0  0
    7.5655  -11.7697   23.0760 H   0  0  0  0  0  0  0  0  0  0  0  0
    8.7063  -13.7493   20.4580 H   0  0  0  0  0  0  0  0  0  0  0  0
   10.0717  -17.4015   22.2756 H   0  0  0  0  0  0  0  0  0  0  0  0
    7.8064  -22.2828   24.7466 H   0  0  0  0  0  0  0  0  0  0  0  0
    6.1201  -20.4152   26.5872 H   0  0  0  0  0  0  0  0  0  0  0  0
    6.3619  -22.1678   26.7928 H   0  0  0  0  0  0  0  0  0  0  0  0
    7.6369  -21.0279   27.1678 H   0  0  0  0  0  0  0  0  0  0  0  0
    6.0551  -22.2588   23.3444 H   0  0  0  0  0  0  0  0  0  0  0  0
    5.6218  -20.5953   23.6546 H   0  0  0  0  0  0  0  0  0  0  0  0
    4.3793  -22.9563   24.8055 H   0  0  0  0  0  0  0  0  0  0  0  0
    1.1120  -20.5104   26.9852 H   0  0  0  0  0  0  0  0  0  0  0  0
    0.5002  -24.4911   26.8287 H   0  0  0  0  0  0  0  0  0  0  0  0
    2.7360  -24.2692   25.6388 H   0  0  0  0  0  0  0  0  0  0  0  0
  1  2  1  0
  2  3  1  0
  3  4  1  0
  4  5  2  0
  4  6  1  0
  6  7  1  0
  7  8  2  0
  8  9  1  0
  9 10  2  0
 10 11  1  0
 11 12  2  0
 12 13  1  0
 13 14  1  0
  3 15  1  0
 15 16  1  0
 15 17  1  0
 17 18  1  0
 18 19  1  0
 19 20  2  0
 19 21  1  0
 21 22  1  0
 22 23  2  0
 23 24  1  0
 24 25  1  0
 14  6  2  0
 25 21  2  0
 13  9  1  0
  1 26  1  0
  1 27  1  0
  1 28  1  0
  2 29  1  0
  2 30  1  0
  7 31  1  0
 11 32  1  0
 12 33  1  0
 14 34  1  0
 15 35  1  0
 16 36  1  0
 16 37  1  0
 16 38  1  0
 17 39  1  0
 17 40  1  0
 18 41  1  0
 22 42  1  0
 24 43  1  0
 25 44  1  0
M  END
>  <Energy>  (1073) 
817.47380476290334

>  <compound_id>  (1073) 
25657

>  <target_id>  (1073) 
1

>  <reference_id>  (1073) 
106

>  <inspiration_ids>  (1073) 
[106, 123]

>  <energy_score>  (1073) 
754.9531529786052

>  <distance_score>  (1073) 
16.646161985962618

>  <path>  (1073) 
/opt/xchem-fragalysis-2/maxwin/BulkDock/SCRATCH/511017/C25657-P106/C25657-P106.minimised.mol

>  <scratch_subdir>  (1073) 
/opt/xchem-fragalysis-2/maxwin/BulkDock/SCRATCH/511017/C25657-P106

>  <fragmenstein_runtime>  (1073) 
35.30017113685608

>  <fragmenstein_outcome>  (1073) 
too moved

>  <fragmenstein_mode>  (1073) 
expansion

>  <fragmenstein_error>  (1073) 


$$$$
C25657-P123
     RDKit          3D

 44 46  0  0  0  0  0  0  0  0999 V2000
    7.0858  -10.7907   31.1087 C   0  0  0  0  0  0  0  0  0  0  0  0
    5.7102  -11.4695   30.9722 C   0  0  0  0  0  0  0  0  0  0  0  0
    5.3950  -11.7743   29.5104 N   0  0  0  0  0  0  0  0  0  0  0  0
    5.2703  -10.5523   28.7655 C   0  0  0  0  0  0  0  0  0  0  0  0
    4.3014   -9.8716   28.5378 O   0  0  0  0  0  0  0  0  0  0  0  0
    6.5758  -10.0729   28.0393 C   0  0  0  0  0  0  0  0  0  0  0  0
    7.0018   -8.6132   28.0574 C   0  0  0  0  0  0  0  0  0  0  0  0
    7.9001   -8.0073   27.3282 N   0  0  0  0  0  0  0  0  0  0  0  0
    8.5458   -8.7697   26.4038 C   0  0  0  0  0  0  0  0  0  0  0  0
    9.4653   -8.4249   25.5177 N   0  0  0  0  0  0  0  0  0  0  0  0
    9.8793   -9.5942   24.9421 C   0  0  0  0  0  0  0  0  0  0  0  0
    9.1227  -10.6530   25.3869 C   0  0  0  0  0  0  0  0  0  0  0  0
    8.2738  -10.1332   26.3340 N   0  0  0  0  0  0  0  0  0  0  0  0
    7.2963  -10.7660   27.1272 C   0  0  0  0  0  0  0  0  0  0  0  0
    4.2391  -12.7420   30.2109 C   0  0  0  0  0  0  0  0  0  0  0  0
    3.6452  -13.5984   29.0642 C   0  0  0  0  0  0  0  0  0  0  0  0
    2.9561  -12.1479   30.9384 C   0  0  0  0  0  0  0  0  0  0  0  0
    1.8242  -13.1035   31.1005 N   0  0  0  0  0  0  0  0  0  0  0  0
    1.4497  -13.9470   32.2082 C   0  0  0  0  0  0  0  0  0  0  0  0
    1.9077  -14.0356   33.3083 O   0  0  0  0  0  0  0  0  0  0  0  0
    0.2608  -14.8229   31.9230 C   0  0  0  0  0  0  0  0  0  0  0  0
   -0.5114  -15.5436   32.8951 C   0  0  0  0  0  0  0  0  0  0  0  0
   -1.5086  -16.2690   32.3760 N   0  0  0  0  0  0  0  0  0  0  0  0
   -1.3840  -16.0593   31.0592 N   0  0  0  0  0  0  0  0  0  0  0  0
   -0.3596  -15.1983   30.7389 C   0  0  0  0  0  0  0  0  0  0  0  0
    7.0736   -9.7678   30.7246 H   0  0  0  0  0  0  0  0  0  0  0  0
    7.8594  -11.3583   30.5816 H   0  0  0  0  0  0  0  0  0  0  0  0
    7.3662  -10.7284   32.1658 H   0  0  0  0  0  0  0  0  0  0  0  0
    5.8392  -12.3428   31.6248 H   0  0  0  0  0  0  0  0  0  0  0  0
    4.9897  -10.7484   31.3783 H   0  0  0  0  0  0  0  0  0  0  0  0
    6.4722   -8.0085   28.8146 H   0  0  0  0  0  0  0  0  0  0  0  0
   10.6856   -9.6139   24.2197 H   0  0  0  0  0  0  0  0  0  0  0  0
    9.1346  -11.7051   25.1405 H   0  0  0  0  0  0  0  0  0  0  0  0
    7.1099  -11.8114   26.9165 H   0  0  0  0  0  0  0  0  0  0  0  0
    4.7180  -13.5174   30.8287 H   0  0  0  0  0  0  0  0  0  0  0  0
    4.3404  -13.7139   28.2415 H   0  0  0  0  0  0  0  0  0  0  0  0
    2.7280  -13.1631   28.6575 H   0  0  0  0  0  0  0  0  0  0  0  0
    3.3836  -14.5998   29.4268 H   0  0  0  0  0  0  0  0  0  0  0  0
    3.2158  -11.8054   31.9445 H   0  0  0  0  0  0  0  0  0  0  0  0
    2.5673  -11.2979   30.3683 H   0  0  0  0  0  0  0  0  0  0  0  0
    1.1624  -13.2367   30.3458 H   0  0  0  0  0  0  0  0  0  0  0  0
   -0.3622  -15.5499   33.9687 H   0  0  0  0  0  0  0  0  0  0  0  0
   -2.0276  -16.5328   30.4321 H   0  0  0  0  0  0  0  0  0  0  0  0
   -0.1590  -14.9649   29.7034 H   0  0  0  0  0  0  0  0  0  0  0  0
  1  2  1  0
  2  3  1  0
  3  4  1  0
  4  5  2  0
  4  6  1  0
  6  7  1  0
  7  8  2  0
  8  9  1  0
  9 10  2  0
 10 11  1  0
 11 12  2  0
 12 13  1  0
 13 14  1  0
  3 15  1  0
 15 16  1  0
 15 17  1  0
 17 18  1  0
 18 19  1  0
 19 20  2  0
 19 21  1  0
 21 22  1  0
 22 23  2  0
 23 24  1  0
 24 25  1  0
 14  6  2  0
 25 21  2  0
 13  9  1  0
  1 26  1  0
  1 27  1  0
  1 28  1  0
  2 29  1  0
  2 30  1  0
  7 31  1  0
 11 32  1  0
 12 33  1  0
 14 34  1  0
 15 35  1  0
 16 36  1  0
 16 37  1  0
 16 38  1  0
 17 39  1  0
 17 40  1  0
 18 41  1  0
 22 42  1  0
 24 43  1  0
 25 44  1  0
M  END
>  <Energy>  (1074) 
108.86006044302152

>  <compound_id>  (1074) 
25657

>  <target_id>  (1074) 
1

>  <reference_id>  (1074) 
123

>  <inspiration_ids>  (1074) 
[106, 123]

>  <energy_score>  (1074) 
46.33940865873433

>  <distance_score>  (1074) 
15.463262678499543

>  <path>  (1074) 
/opt/xchem-fragalysis-2/maxwin/BulkDock/SCRATCH/511017/C25657-P123/C25657-P123.minimised.mol

>  <scratch_subdir>  (1074) 
/opt/xchem-fragalysis-2/maxwin/BulkDock/SCRATCH/511017/C25657-P123

>  <fragmenstein_runtime>  (1074) 
41.928200483322144

>  <fragmenstein_outcome>  (1074) 
too moved

>  <fragmenstein_mode>  (1074) 
expansion

>  <fragmenstein_error>  (1074) 


$$$$
C25658-P106
     RDKit          3D

 44 46  0  0  0  0  0  0  0  0999 V2000
   -3.6310  -18.4317   28.2925 C   0  0  0  0  0  0  0  0  0  0  0  0
   -3.3141  -18.0082   26.4992 C   0  0  0  0  0  0  0  0  0  0  0  0
   -4.2227  -18.8818   26.3565 N   0  0  0  0  0  0  0  0  0  0  0  0
   -5.9245  -19.0116   27.1350 C   0  0  0  0  0  0  0  0  0  0  0  0
   -6.3836  -18.1175   27.7933 O   0  0  0  0  0  0  0  0  0  0  0  0
   -7.1389  -20.5636   27.2007 C   0  0  0  0  0  0  0  0  0  0  0  0
   -9.0879  -20.7470   27.6677 C   0  0  0  0  0  0  0  0  0  0  0  0
   -9.5237  -22.0160   28.2224 N   0  0  0  0  0  0  0  0  0  0  0  0
   -8.2902  -22.7324   27.8785 N   0  0  0  0  0  0  0  0  0  0  0  0
   -7.0312  -22.0038   27.2506 C   0  0  0  0  0  0  0  0  0  0  0  0
   -2.8552  -17.2205   26.2047 C   0  0  0  0  0  0  0  0  0  0  0  0
   -2.2454  -16.4506   27.8103 C   0  0  0  0  0  0  0  0  0  0  0  0
   -2.1457  -15.7418   24.7432 C   0  0  0  0  0  0  0  0  0  0  0  0
   -0.7307  -14.2665   24.6719 N   0  0  0  0  0  0  0  0  0  0  0  0
    1.0032  -14.1657   23.8587 C   0  0  0  0  0  0  0  0  0  0  0  0
    1.4519  -15.0060   23.1445 O   0  0  0  0  0  0  0  0  0  0  0  0
    2.4150  -12.8561   24.1681 C   0  0  0  0  0  0  0  0  0  0  0  0
    3.4084  -12.1743   22.7924 C   0  0  0  0  0  0  0  0  0  0  0  0
    4.6072  -11.2264   22.5847 N   0  0  0  0  0  0  0  0  0  0  0  0
    5.8073  -11.3385   23.7800 C   0  0  0  0  0  0  0  0  0  0  0  0
    7.0877  -11.0457   23.8920 N   0  0  0  0  0  0  0  0  0  0  0  0
    7.5148  -11.5546   25.1064 C   0  0  0  0  0  0  0  0  0  0  0  0
    6.5894  -12.3367   25.7965 C   0  0  0  0  0  0  0  0  0  0  0  0
    5.3938  -12.3496   25.0735 N   0  0  0  0  0  0  0  0  0  0  0  0
    3.8406  -13.4222   24.7048 C   0  0  0  0  0  0  0  0  0  0  0  0
   -4.3595  -17.7360   28.7215 H   0  0  0  0  0  0  0  0  0  0  0  0
   -2.7232  -18.4030   28.9117 H   0  0  0  0  0  0  0  0  0  0  0  0
   -3.9675  -19.4736   28.4312 H   0  0  0  0  0  0  0  0  0  0  0  0
   -2.3433  -18.7058   27.0268 H   0  0  0  0  0  0  0  0  0  0  0  0
   -2.9258  -18.9325   25.7603 H   0  0  0  0  0  0  0  0  0  0  0  0
   -9.2838  -19.8145   28.2300 H   0  0  0  0  0  0  0  0  0  0  0  0
   -8.5086  -23.7038   27.9962 H   0  0  0  0  0  0  0  0  0  0  0  0
   -6.1904  -22.6592   27.0892 H   0  0  0  0  0  0  0  0  0  0  0  0
   -1.7463  -17.7407   25.8283 H   0  0  0  0  0  0  0  0  0  0  0  0
   -3.0482  -16.2674   28.5305 H   0  0  0  0  0  0  0  0  0  0  0  0
   -1.8520  -15.4463   27.6436 H   0  0  0  0  0  0  0  0  0  0  0  0
   -1.4405  -17.0682   28.2242 H   0  0  0  0  0  0  0  0  0  0  0  0
   -2.8996  -15.4543   24.0236 H   0  0  0  0  0  0  0  0  0  0  0  0
   -2.4582  -15.0164   25.4767 H   0  0  0  0  0  0  0  0  0  0  0  0
   -0.9177  -13.4121   25.1780 H   0  0  0  0  0  0  0  0  0  0  0  0
    2.8147  -11.3234   22.8900 H   0  0  0  0  0  0  0  0  0  0  0  0
    8.5300  -11.3557   25.4315 H   0  0  0  0  0  0  0  0  0  0  0  0
    6.6811  -12.8410   26.7390 H   0  0  0  0  0  0  0  0  0  0  0  0
    3.9992  -14.3300   25.2816 H   0  0  0  0  0  0  0  0  0  0  0  0
  1  2  1  0
  2  3  1  0
  3  4  1  0
  4  5  2  0
  4  6  1  0
  6  7  1  0
  7  8  2  0
  8  9  1  0
  9 10  1  0
  3 11  1  0
 11 12  1  0
 11 13  1  0
 13 14  1  0
 14 15  1  0
 15 16  2  0
 15 17  1  0
 17 18  1  0
 18 19  2  0
 19 20  1  0
 20 21  2  0
 21 22  1  0
 22 23  2  0
 23 24  1  0
 24 25  1  0
 10  6  2  0
 25 17  2  0
 24 20  1  0
  1 26  1  0
  1 27  1  0
  1 28  1  0
  2 29  1  0
  2 30  1  0
  7 31  1  0
  9 32  1  0
 10 33  1  0
 11 34  1  0
 12 35  1  0
 12 36  1  0
 12 37  1  0
 13 38  1  0
 13 39  1  0
 14 40  1  0
 18 41  1  0
 22 42  1  0
 23 43  1  0
 25 44  1  0
M  END
>  <Energy>  (1075) 
1985.3758706846384

>  <compound_id>  (1075) 
25658

>  <target_id>  (1075) 
1

>  <reference_id>  (1075) 
106

>  <inspiration_ids>  (1075) 
[106, 123]

>  <energy_score>  (1075) 
1928.0511586512303

>  <distance_score>  (1075) 
13.147859608267826

>  <path>  (1075) 
/opt/xchem-fragalysis-2/maxwin/BulkDock/SCRATCH/511017/C25658-P106/C25658-P106.minimised.mol

>  <scratch_subdir>  (1075) 
/opt/xchem-fragalysis-2/maxwin/BulkDock/SCRATCH/511017/C25658-P106

>  <fragmenstein_runtime>  (1075) 
30.50216507911682

>  <fragmenstein_outcome>  (1075) 
too moved

>  <fragmenstein_mode>  (1075) 
expansion

>  <fragmenstein_error>  (1075) 


$$$$
C25658-P123
     RDKit          3D

 44 46  0  0  0  0  0  0  0  0999 V2000
   -2.2240  -15.6352   28.6231 C   0  0  0  0  0  0  0  0  0  0  0  0
   -2.6833  -15.5342   26.8737 C   0  0  0  0  0  0  0  0  0  0  0  0
   -2.8731  -16.7790   27.0458 N   0  0  0  0  0  0  0  0  0  0  0  0
   -1.9514  -18.0109   27.1424 C   0  0  0  0  0  0  0  0  0  0  0  0
   -0.8108  -18.1483   26.9671 O   0  0  0  0  0  0  0  0  0  0  0  0
   -2.7406  -19.1776   27.5548 C   0  0  0  0  0  0  0  0  0  0  0  0
   -2.3320  -20.2248   28.4213 C   0  0  0  0  0  0  0  0  0  0  0  0
   -3.1978  -21.2383   28.4670 N   0  0  0  0  0  0  0  0  0  0  0  0
   -4.1599  -20.8528   27.6188 N   0  0  0  0  0  0  0  0  0  0  0  0
   -3.9905  -19.5885   27.1312 C   0  0  0  0  0  0  0  0  0  0  0  0
   -2.2976  -14.9592   26.3165 C   0  0  0  0  0  0  0  0  0  0  0  0
   -2.5219  -15.6110   24.6600 C   0  0  0  0  0  0  0  0  0  0  0  0
   -1.1153  -13.9811   24.9368 C   0  0  0  0  0  0  0  0  0  0  0  0
    0.5705  -13.9625   23.7933 N   0  0  0  0  0  0  0  0  0  0  0  0
    2.0143  -12.8142   23.8236 C   0  0  0  0  0  0  0  0  0  0  0  0
    2.1456  -11.9873   24.6166 O   0  0  0  0  0  0  0  0  0  0  0  0
    3.3277  -12.7058   22.5168 C   0  0  0  0  0  0  0  0  0  0  0  0
    4.1386  -11.4504   22.3796 C   0  0  0  0  0  0  0  0  0  0  0  0
    5.2393  -11.0970   21.7366 N   0  0  0  0  0  0  0  0  0  0  0  0
    5.7601  -11.8470   20.7048 C   0  0  0  0  0  0  0  0  0  0  0  0
    6.8072  -11.6808   19.9255 N   0  0  0  0  0  0  0  0  0  0  0  0
    6.5389  -12.4827   18.8541 C   0  0  0  0  0  0  0  0  0  0  0  0
    5.3422  -13.1486   19.0299 C   0  0  0  0  0  0  0  0  0  0  0  0
    4.8816  -12.8044   20.3019 N   0  0  0  0  0  0  0  0  0  0  0  0
    3.6954  -13.1453   21.1992 C   0  0  0  0  0  0  0  0  0  0  0  0
   -2.5229  -14.7243   29.1489 H   0  0  0  0  0  0  0  0  0  0  0  0
   -2.7649  -16.4312   29.1668 H   0  0  0  0  0  0  0  0  0  0  0  0
   -1.1564  -15.8348   28.7329 H   0  0  0  0  0  0  0  0  0  0  0  0
   -3.5221  -14.9618   27.6236 H   0  0  0  0  0  0  0  0  0  0  0  0
   -3.8503  -15.8271   26.5819 H   0  0  0  0  0  0  0  0  0  0  0  0
   -1.4114  -20.2961   28.9875 H   0  0  0  0  0  0  0  0  0  0  0  0
   -4.9008  -21.5126   27.4109 H   0  0  0  0  0  0  0  0  0  0  0  0
   -4.7145  -19.1493   26.4621 H   0  0  0  0  0  0  0  0  0  0  0  0
   -2.9559  -13.8996   26.4287 H   0  0  0  0  0  0  0  0  0  0  0  0
   -2.6604  -16.6325   24.9279 H   0  0  0  0  0  0  0  0  0  0  0  0
   -3.2463  -15.2275   23.9440 H   0  0  0  0  0  0  0  0  0  0  0  0
   -1.6332  -15.5077   24.0840 H   0  0  0  0  0  0  0  0  0  0  0  0
   -1.7585  -13.0774   25.0880 H   0  0  0  0  0  0  0  0  0  0  0  0
   -0.6337  -13.3566   25.7509 H   0  0  0  0  0  0  0  0  0  0  0  0
    0.6203  -14.5252   22.9822 H   0  0  0  0  0  0  0  0  0  0  0  0
    3.5757  -10.6677   22.8492 H   0  0  0  0  0  0  0  0  0  0  0  0
    7.2011  -12.5296   18.0000 H   0  0  0  0  0  0  0  0  0  0  0  0
    4.7951  -13.8273   18.3951 H   0  0  0  0  0  0  0  0  0  0  0  0
    3.0429  -13.8746   20.7780 H   0  0  0  0  0  0  0  0  0  0  0  0
  1  2  1  0
  2  3  1  0
  3  4  1  0
  4  5  2  0
  4  6  1  0
  6  7  1  0
  7  8  2  0
  8  9  1  0
  9 10  1  0
  3 11  1  0
 11 12  1  0
 11 13  1  0
 13 14  1  0
 14 15  1  0
 15 16  2  0
 15 17  1  0
 17 18  1  0
 18 19  2  0
 19 20  1  0
 20 21  2  0
 21 22  1  0
 22 23  2  0
 23 24  1  0
 24 25  1  0
 10  6  2  0
 25 17  2  0
 24 20  1  0
  1 26  1  0
  1 27  1  0
  1 28  1  0
  2 29  1  0
  2 30  1  0
  7 31  1  0
  9 32  1  0
 10 33  1  0
 11 34  1  0
 12 35  1  0
 12 36  1  0
 12 37  1  0
 13 38  1  0
 13 39  1  0
 14 40  1  0
 18 41  1  0
 22 42  1  0
 23 43  1  0
 25 44  1  0
M  END
>  <Energy>  (1076) 
1296.6624805001179

>  <compound_id>  (1076) 
25658

>  <target_id>  (1076) 
1

>  <reference_id>  (1076) 
123

>  <inspiration_ids>  (1076) 
[106, 123]

>  <energy_score>  (1076) 
1239.3377684667184

>  <distance_score>  (1076) 
13.588597290608133

>  <path>  (1076) 
/opt/xchem-fragalysis-2/maxwin/BulkDock/SCRATCH/511017/C25658-P123/C25658-P123.minimised.mol

>  <scratch_subdir>  (1076) 
/opt/xchem-fragalysis-2/maxwin/BulkDock/SCRATCH/511017/C25658-P123

>  <fragmenstein_runtime>  (1076) 
44.961527585983276

>  <fragmenstein_outcome>  (1076) 
too moved

>  <fragmenstein_mode>  (1076) 
expansion

>  <fragmenstein_error>  (1076) 


$$$$
C25659-P106
     RDKit          3D

 35 38  0  0  0  0  0  0  0  0999 V2000
  -10.0065  -24.0833   24.1892 O   0  0  0  0  0  0  0  0  0  0  0  0
  -10.8822  -23.2673   24.1658 C   0  0  0  0  0  0  0  0  0  0  0  0
  -11.0436  -22.0258   23.3095 N   0  0  0  0  0  0  0  0  0  0  0  0
  -10.1126  -21.3950   22.3133 C   0  0  0  0  0  0  0  0  0  0  0  0
   -8.8078  -21.8854   22.0702 C   0  0  0  0  0  0  0  0  0  0  0  0
   -7.7602  -21.1488   21.3631 C   0  0  0  0  0  0  0  0  0  0  0  0
   -7.9241  -19.8534   20.8279 C   0  0  0  0  0  0  0  0  0  0  0  0
   -6.7495  -19.0754   20.1830 C   0  0  0  0  0  0  0  0  0  0  0  0
   -5.4234  -19.1885   20.5798 C   0  0  0  0  0  0  0  0  0  0  0  0
   -4.6579  -18.4658   19.6927 N   0  0  0  0  0  0  0  0  0  0  0  0
   -3.2850  -18.2902   19.6398 C   0  0  0  0  0  0  0  0  0  0  0  0
   -2.7432  -17.6356   18.6152 C   0  0  0  0  0  0  0  0  0  0  0  0
   -3.6961  -17.1897   17.5702 C   0  0  0  0  0  0  0  0  0  0  0  0
   -4.9936  -17.2798   17.6322 N   0  0  0  0  0  0  0  0  0  0  0  0
   -5.5144  -17.9399   18.7291 C   0  0  0  0  0  0  0  0  0  0  0  0
   -6.7767  -18.2156   19.0684 N   0  0  0  0  0  0  0  0  0  0  0  0
   -9.2463  -19.3816   20.9998 C   0  0  0  0  0  0  0  0  0  0  0  0
  -10.3089  -20.1250   21.7274 C   0  0  0  0  0  0  0  0  0  0  0  0
  -11.8958  -23.5550   25.2923 C   0  0  0  0  0  0  0  0  0  0  0  0
  -12.4582  -24.8334   25.6578 C   0  0  0  0  0  0  0  0  0  0  0  0
  -12.9050  -24.9212   26.9181 N   0  0  0  0  0  0  0  0  0  0  0  0
  -12.4586  -23.7893   27.4655 N   0  0  0  0  0  0  0  0  0  0  0  0
  -11.9048  -22.9425   26.5483 C   0  0  0  0  0  0  0  0  0  0  0  0
  -11.8674  -21.5166   23.6107 H   0  0  0  0  0  0  0  0  0  0  0  0
   -8.5079  -22.8396   22.5042 H   0  0  0  0  0  0  0  0  0  0  0  0
   -6.7943  -21.6461   21.2782 H   0  0  0  0  0  0  0  0  0  0  0  0
   -4.9764  -19.7663   21.3731 H   0  0  0  0  0  0  0  0  0  0  0  0
   -2.6910  -18.7295   20.4234 H   0  0  0  0  0  0  0  0  0  0  0  0
   -1.6914  -17.5092   18.5381 H   0  0  0  0  0  0  0  0  0  0  0  0
   -3.2436  -16.7197   16.6816 H   0  0  0  0  0  0  0  0  0  0  0  0
   -9.4966  -18.3962   20.6053 H   0  0  0  0  0  0  0  0  0  0  0  0
  -11.2704  -19.6283   21.8410 H   0  0  0  0  0  0  0  0  0  0  0  0
  -12.4965  -25.7406   25.0672 H   0  0  0  0  0  0  0  0  0  0  0  0
  -12.5624  -23.6524   28.4674 H   0  0  0  0  0  0  0  0  0  0  0  0
  -11.4856  -22.0154   26.9100 H   0  0  0  0  0  0  0  0  0  0  0  0
  1  2  2  0
  2  3  1  0
  3  4  1  0
  4  5  2  0
  5  6  1  0
  6  7  2  0
  7  8  1  0
  8  9  2  0
  9 10  1  0
 10 11  1  0
 11 12  2  0
 12 13  1  0
 13 14  2  0
 14 15  1  0
 15 16  2  0
  7 17  1  0
 17 18  2  0
  2 19  1  0
 19 20  1  0
 20 21  2  0
 21 22  1  0
 22 23  1  0
 18  4  1  0
 23 19  2  0
 16  8  1  0
 15 10  1  0
  3 24  1  0
  5 25  1  0
  6 26  1  0
  9 27  1  0
 11 28  1  0
 12 29  1  0
 13 30  1  0
 17 31  1  0
 18 32  1  0
 20 33  1  0
 22 34  1  0
 23 35  1  0
M  END
>  <Energy>  (1077) 
90.615236825811024

>  <compound_id>  (1077) 
25659

>  <target_id>  (1077) 
1

>  <reference_id>  (1077) 
106

>  <inspiration_ids>  (1077) 
[106, 123]

>  <energy_score>  (1077) 
12.400152082159252

>  <distance_score>  (1077) 
18.60922627280442

>  <path>  (1077) 
/opt/xchem-fragalysis-2/maxwin/BulkDock/SCRATCH/511017/C25659-P106/C25659-P106.minimised.mol

>  <scratch_subdir>  (1077) 
/opt/xchem-fragalysis-2/maxwin/BulkDock/SCRATCH/511017/C25659-P106

>  <fragmenstein_runtime>  (1077) 
21.587395429611206

>  <fragmenstein_outcome>  (1077) 
too moved

>  <fragmenstein_mode>  (1077) 
expansion

>  <fragmenstein_error>  (1077) 


$$$$
C25659-P123
     RDKit          3D

 35 38  0  0  0  0  0  0  0  0999 V2000
   -4.2880  -12.7747   14.7224 O   0  0  0  0  0  0  0  0  0  0  0  0
   -3.6347  -13.7730   14.8347 C   0  0  0  0  0  0  0  0  0  0  0  0
   -2.2455  -14.0416   14.4879 N   0  0  0  0  0  0  0  0  0  0  0  0
   -1.2155  -13.1764   13.9986 C   0  0  0  0  0  0  0  0  0  0  0  0
    0.1080  -13.6454   14.0017 C   0  0  0  0  0  0  0  0  0  0  0  0
    1.2285  -12.7798   13.7238 C   0  0  0  0  0  0  0  0  0  0  0  0
    1.0811  -11.4014   13.4602 C   0  0  0  0  0  0  0  0  0  0  0  0
    2.2182  -10.4011   13.5923 C   0  0  0  0  0  0  0  0  0  0  0  0
    3.5510  -10.6660   13.8840 C   0  0  0  0  0  0  0  0  0  0  0  0
    4.1043   -9.4743   14.3255 N   0  0  0  0  0  0  0  0  0  0  0  0
    5.3406   -9.2163   14.9192 C   0  0  0  0  0  0  0  0  0  0  0  0
    5.5896   -7.9957   15.4143 C   0  0  0  0  0  0  0  0  0  0  0  0
    4.4937   -7.0060   15.2318 C   0  0  0  0  0  0  0  0  0  0  0  0
    3.3670   -7.2076   14.6195 N   0  0  0  0  0  0  0  0  0  0  0  0
    3.1316   -8.4878   14.1845 C   0  0  0  0  0  0  0  0  0  0  0  0
    2.0174   -9.0249   13.7060 N   0  0  0  0  0  0  0  0  0  0  0  0
   -0.2627  -10.9768   13.3369 C   0  0  0  0  0  0  0  0  0  0  0  0
   -1.3881  -11.8437   13.6024 C   0  0  0  0  0  0  0  0  0  0  0  0
   -4.3257  -14.9317   15.5448 C   0  0  0  0  0  0  0  0  0  0  0  0
   -5.6206  -14.8875   16.1771 C   0  0  0  0  0  0  0  0  0  0  0  0
   -5.9774  -16.0186   16.8030 N   0  0  0  0  0  0  0  0  0  0  0  0
   -4.9351  -16.8286   16.5831 N   0  0  0  0  0  0  0  0  0  0  0  0
   -3.9567  -16.2471   15.8059 C   0  0  0  0  0  0  0  0  0  0  0  0
   -2.0037  -14.9655   14.7955 H   0  0  0  0  0  0  0  0  0  0  0  0
    0.3299  -14.6740   14.2767 H   0  0  0  0  0  0  0  0  0  0  0  0
    2.2229  -13.2125   13.8176 H   0  0  0  0  0  0  0  0  0  0  0  0
    4.1118  -11.5871   13.9381 H   0  0  0  0  0  0  0  0  0  0  0  0
    6.0371  -10.0410   14.9967 H   0  0  0  0  0  0  0  0  0  0  0  0
    6.4937   -7.6993   15.9147 H   0  0  0  0  0  0  0  0  0  0  0  0
    4.6875   -6.0101   15.6624 H   0  0  0  0  0  0  0  0  0  0  0  0
   -0.4666   -9.9227   13.1411 H   0  0  0  0  0  0  0  0  0  0  0  0
   -2.3859  -11.4089   13.5673 H   0  0  0  0  0  0  0  0  0  0  0  0
   -6.2928  -14.0376   16.2073 H   0  0  0  0  0  0  0  0  0  0  0  0
   -4.9631  -17.7707   16.9614 H   0  0  0  0  0  0  0  0  0  0  0  0
   -3.1044  -16.8379   15.5185 H   0  0  0  0  0  0  0  0  0  0  0  0
  1  2  2  0
  2  3  1  0
  3  4  1  0
  4  5  2  0
  5  6  1  0
  6  7  2  0
  7  8  1  0
  8  9  2  0
  9 10  1  0
 10 11  1  0
 11 12  2  0
 12 13  1  0
 13 14  2  0
 14 15  1  0
 15 16  2  0
  7 17  1  0
 17 18  2  0
  2 19  1  0
 19 20  1  0
 20 21  2  0
 21 22  1  0
 22 23  1  0
 18  4  1  0
 23 19  2  0
 16  8  1  0
 15 10  1  0
  3 24  1  0
  5 25  1  0
  6 26  1  0
  9 27  1  0
 11 28  1  0
 12 29  1  0
 13 30  1  0
 17 31  1  0
 18 32  1  0
 20 33  1  0
 22 34  1  0
 23 35  1  0
M  END
>  <Energy>  (1078) 
56.252864883894397

>  <compound_id>  (1078) 
25659

>  <target_id>  (1078) 
1

>  <reference_id>  (1078) 
123

>  <inspiration_ids>  (1078) 
[106, 123]

>  <energy_score>  (1078) 
-21.962219859756374

>  <distance_score>  (1078) 
16.51419740045613

>  <path>  (1078) 
/opt/xchem-fragalysis-2/maxwin/BulkDock/SCRATCH/511017/C25659-P123/C25659-P123.minimised.mol

>  <scratch_subdir>  (1078) 
/opt/xchem-fragalysis-2/maxwin/BulkDock/SCRATCH/511017/C25659-P123

>  <fragmenstein_runtime>  (1078) 
30.79498052597046

>  <fragmenstein_outcome>  (1078) 
too moved

>  <fragmenstein_mode>  (1078) 
expansion

>  <fragmenstein_error>  (1078) 


$$$$
C25660-P106
     RDKit          3D

 35 38  0  0  0  0  0  0  0  0999 V2000
   -1.7796  -25.4298   33.8693 O   0  0  0  0  0  0  0  0  0  0  0  0
   -2.5764  -24.7770   33.2362 C   0  0  0  0  0  0  0  0  0  0  0  0
   -2.3457  -23.5156   32.2724 N   0  0  0  0  0  0  0  0  0  0  0  0
   -1.0483  -22.8448   31.8000 C   0  0  0  0  0  0  0  0  0  0  0  0
    0.1173  -23.5490   32.0461 C   0  0  0  0  0  0  0  0  0  0  0  0
    1.3726  -23.0893   31.5745 C   0  0  0  0  0  0  0  0  0  0  0  0
    1.5593  -21.8935   30.8325 C   0  0  0  0  0  0  0  0  0  0  0  0
    0.5030  -21.0356   30.5079 C   0  0  0  0  0  0  0  0  0  0  0  0
    1.0028  -19.7126   29.6925 C   0  0  0  0  0  0  0  0  0  0  0  0
    1.1748  -18.4162   30.1906 C   0  0  0  0  0  0  0  0  0  0  0  0
    2.0805  -17.7288   29.3613 N   0  0  0  0  0  0  0  0  0  0  0  0
    2.7055  -16.4769   29.5116 C   0  0  0  0  0  0  0  0  0  0  0  0
    3.6527  -16.0727   28.6465 C   0  0  0  0  0  0  0  0  0  0  0  0
    3.9280  -17.0374   27.5469 C   0  0  0  0  0  0  0  0  0  0  0  0
    3.3329  -18.1807   27.3610 N   0  0  0  0  0  0  0  0  0  0  0  0
    2.4065  -18.5790   28.3100 C   0  0  0  0  0  0  0  0  0  0  0  0
    1.7867  -19.7517   28.4939 N   0  0  0  0  0  0  0  0  0  0  0  0
   -0.8318  -21.5520   31.0055 C   0  0  0  0  0  0  0  0  0  0  0  0
   -4.1684  -25.4567   33.3574 C   0  0  0  0  0  0  0  0  0  0  0  0
   -5.5898  -24.8644   32.3563 C   0  0  0  0  0  0  0  0  0  0  0  0
   -6.8428  -25.4720   32.5755 N   0  0  0  0  0  0  0  0  0  0  0  0
   -6.3256  -26.7554   33.4196 N   0  0  0  0  0  0  0  0  0  0  0  0
   -4.7046  -26.6750   33.8424 C   0  0  0  0  0  0  0  0  0  0  0  0
   -3.2371  -23.1576   31.9659 H   0  0  0  0  0  0  0  0  0  0  0  0
    0.1031  -24.4906   32.5899 H   0  0  0  0  0  0  0  0  0  0  0  0
    2.2519  -23.6994   31.7874 H   0  0  0  0  0  0  0  0  0  0  0  0
    2.5709  -21.6453   30.5095 H   0  0  0  0  0  0  0  0  0  0  0  0
    0.8509  -17.9672   31.1177 H   0  0  0  0  0  0  0  0  0  0  0  0
    2.4064  -15.8937   30.3732 H   0  0  0  0  0  0  0  0  0  0  0  0
    4.1929  -15.1396   28.7016 H   0  0  0  0  0  0  0  0  0  0  0  0
    4.6957  -16.7162   26.8232 H   0  0  0  0  0  0  0  0  0  0  0  0
   -1.7126  -20.9548   30.7702 H   0  0  0  0  0  0  0  0  0  0  0  0
   -5.4474  -24.0185   31.7148 H   0  0  0  0  0  0  0  0  0  0  0  0
   -6.6151  -27.5461   32.8673 H   0  0  0  0  0  0  0  0  0  0  0  0
   -4.3461  -27.5722   34.3218 H   0  0  0  0  0  0  0  0  0  0  0  0
  1  2  2  0
  2  3  1  0
  3  4  1  0
  4  5  2  0
  5  6  1  0
  6  7  2  0
  7  8  1  0
  8  9  1  0
  9 10  2  0
 10 11  1  0
 11 12  1  0
 12 13  2  0
 13 14  1  0
 14 15  2  0
 15 16  1  0
 16 17  2  0
  8 18  2  0
  2 19  1  0
 19 20  1  0
 20 21  2  0
 21 22  1  0
 22 23  1  0
 18  4  1  0
 23 19  2  0
 17  9  1  0
 16 11  1  0
  3 24  1  0
  5 25  1  0
  6 26  1  0
  7 27  1  0
 10 28  1  0
 12 29  1  0
 13 30  1  0
 14 31  1  0
 18 32  1  0
 20 33  1  0
 22 34  1  0
 23 35  1  0
M  END
>  <Energy>  (1079) 
222.80962628487342

>  <compound_id>  (1079) 
25660

>  <target_id>  (1079) 
1

>  <reference_id>  (1079) 
106

>  <inspiration_ids>  (1079) 
[106, 123]

>  <energy_score>  (1079) 
139.3669486800993

>  <distance_score>  (1079) 
18.111590448965394

>  <path>  (1079) 
/opt/xchem-fragalysis-2/maxwin/BulkDock/SCRATCH/511017/C25660-P106/C25660-P106.minimised.mol

>  <scratch_subdir>  (1079) 
/opt/xchem-fragalysis-2/maxwin/BulkDock/SCRATCH/511017/C25660-P106

>  <fragmenstein_runtime>  (1079) 
33.734097957611084

>  <fragmenstein_outcome>  (1079) 
too moved

>  <fragmenstein_mode>  (1079) 
expansion

>  <fragmenstein_error>  (1079) 


$$$$
C25660-P123
     RDKit          3D

 35 38  0  0  0  0  0  0  0  0999 V2000
   -2.3310  -14.7466   28.4516 O   0  0  0  0  0  0  0  0  0  0  0  0
   -2.6163  -15.1526   27.3664 C   0  0  0  0  0  0  0  0  0  0  0  0
   -2.1375  -14.7090   25.9773 N   0  0  0  0  0  0  0  0  0  0  0  0
   -0.8896  -13.5100   25.4806 C   0  0  0  0  0  0  0  0  0  0  0  0
   -0.8074  -14.2587   24.1505 C   0  0  0  0  0  0  0  0  0  0  0  0
   -0.1552  -13.5643   23.0362 C   0  0  0  0  0  0  0  0  0  0  0  0
    0.8222  -11.9006   23.0169 C   0  0  0  0  0  0  0  0  0  0  0  0
    1.9489  -12.3657   24.0839 C   0  0  0  0  0  0  0  0  0  0  0  0
    3.3956  -12.2356   22.8508 C   0  0  0  0  0  0  0  0  0  0  0  0
    3.7590  -12.8253   21.4931 C   0  0  0  0  0  0  0  0  0  0  0  0
    5.0451  -12.3189   20.7636 N   0  0  0  0  0  0  0  0  0  0  0  0
    5.7966  -12.7237   19.6477 C   0  0  0  0  0  0  0  0  0  0  0  0
    6.9229  -12.0632   19.3153 C   0  0  0  0  0  0  0  0  0  0  0  0
    7.3452  -10.9671   20.2310 C   0  0  0  0  0  0  0  0  0  0  0  0
    6.7047  -10.5650   21.2854 N   0  0  0  0  0  0  0  0  0  0  0  0
    5.4869  -11.1784   21.4994 C   0  0  0  0  0  0  0  0  0  0  0  0
    4.5079  -11.0345   22.5124 N   0  0  0  0  0  0  0  0  0  0  0  0
    1.0602  -13.2192   25.5910 C   0  0  0  0  0  0  0  0  0  0  0  0
   -3.5081  -16.3508   27.4108 C   0  0  0  0  0  0  0  0  0  0  0  0
   -4.8028  -16.4442   28.0112 C   0  0  0  0  0  0  0  0  0  0  0  0
   -5.2797  -17.6909   28.0682 N   0  0  0  0  0  0  0  0  0  0  0  0
   -4.2495  -18.4349   27.6490 N   0  0  0  0  0  0  0  0  0  0  0  0
   -3.1812  -17.6854   27.2176 C   0  0  0  0  0  0  0  0  0  0  0  0
   -2.5208  -15.3294   25.2753 H   0  0  0  0  0  0  0  0  0  0  0  0
   -1.4289  -15.1064   23.9010 H   0  0  0  0  0  0  0  0  0  0  0  0
    0.6873  -14.3066   23.3391 H   0  0  0  0  0  0  0  0  0  0  0  0
    0.6850  -11.1543   22.2564 H   0  0  0  0  0  0  0  0  0  0  0  0
    3.3023  -13.6232   20.9788 H   0  0  0  0  0  0  0  0  0  0  0  0
    5.4105  -13.5402   19.0572 H   0  0  0  0  0  0  0  0  0  0  0  0
    7.5301  -12.3013   18.4541 H   0  0  0  0  0  0  0  0  0  0  0  0
    8.3091  -10.4944   19.9794 H   0  0  0  0  0  0  0  0  0  0  0  0
    1.6114  -13.6720   26.3867 H   0  0  0  0  0  0  0  0  0  0  0  0
   -5.4029  -15.6380   28.4159 H   0  0  0  0  0  0  0  0  0  0  0  0
   -4.3367  -19.4453   27.6985 H   0  0  0  0  0  0  0  0  0  0  0  0
   -2.2674  -18.1666   26.9020 H   0  0  0  0  0  0  0  0  0  0  0  0
  1  2  2  0
  2  3  1  0
  3  4  1  0
  4  5  2  0
  5  6  1  0
  6  7  2  0
  7  8  1  0
  8  9  1  0
  9 10  2  0
 10 11  1  0
 11 12  1  0
 12 13  2  0
 13 14  1  0
 14 15  2  0
 15 16  1  0
 16 17  2  0
  8 18  2  0
  2 19  1  0
 19 20  1  0
 20 21  2  0
 21 22  1  0
 22 23  1  0
 18  4  1  0
 23 19  2  0
 17  9  1  0
 16 11  1  0
  3 24  1  0
  5 25  1  0
  6 26  1  0
  7 27  1  0
 10 28  1  0
 12 29  1  0
 13 30  1  0
 14 31  1  0
 18 32  1  0
 20 33  1  0
 22 34  1  0
 23 35  1  0
M  END
>  <Energy>  (1080) 
791.72407844937368

>  <compound_id>  (1080) 
25660

>  <target_id>  (1080) 
1

>  <reference_id>  (1080) 
123

>  <inspiration_ids>  (1080) 
[106, 123]

>  <energy_score>  (1080) 
708.2814008446016

>  <distance_score>  (1080) 
13.620094887426571

>  <path>  (1080) 
/opt/xchem-fragalysis-2/maxwin/BulkDock/SCRATCH/511017/C25660-P123/C25660-P123.minimised.mol

>  <scratch_subdir>  (1080) 
/opt/xchem-fragalysis-2/maxwin/BulkDock/SCRATCH/511017/C25660-P123

>  <fragmenstein_runtime>  (1080) 
21.85290288925171

>  <fragmenstein_outcome>  (1080) 
too moved

>  <fragmenstein_mode>  (1080) 
expansion

>  <fragmenstein_error>  (1080) 


$$$$
C25663-P106
     RDKit          3D

 41 43  0  0  0  0  0  0  0  0999 V2000
   -3.8956   -8.9561   21.3755 C   0  0  0  0  0  0  0  0  0  0  0  0
   -2.6396   -9.3999   20.6392 C   0  0  0  0  0  0  0  0  0  0  0  0
   -2.8250   -9.4669   19.1116 C   0  0  0  0  0  0  0  0  0  0  0  0
   -3.3093  -10.9185   18.6790 C   0  0  0  0  0  0  0  0  0  0  0  0
   -4.0950  -11.7690   19.6215 N   0  0  0  0  0  0  0  0  0  0  0  0
   -4.0565  -13.1978   19.8688 C   0  0  0  0  0  0  0  0  0  0  0  0
   -3.3299  -14.0427   19.4357 O   0  0  0  0  0  0  0  0  0  0  0  0
   -5.0367  -13.7068   20.9076 C   0  0  0  0  0  0  0  0  0  0  0  0
   -6.0324  -13.1130   21.7336 C   0  0  0  0  0  0  0  0  0  0  0  0
   -6.6104  -13.9602   22.6006 N   0  0  0  0  0  0  0  0  0  0  0  0
   -6.0152  -15.1337   22.3399 N   0  0  0  0  0  0  0  0  0  0  0  0
   -5.0834  -15.0353   21.3470 C   0  0  0  0  0  0  0  0  0  0  0  0
   -1.5262   -9.0709   18.4764 N   0  0  0  0  0  0  0  0  0  0  0  0
   -1.2457   -8.3998   17.2330 C   0  0  0  0  0  0  0  0  0  0  0  0
   -1.9844   -7.9138   16.4234 O   0  0  0  0  0  0  0  0  0  0  0  0
    0.3569   -8.4000   16.8045 C   0  0  0  0  0  0  0  0  0  0  0  0
    0.5893   -8.0548   15.3342 C   0  0  0  0  0  0  0  0  0  0  0  0
    1.6800   -7.7425   14.7179 N   0  0  0  0  0  0  0  0  0  0  0  0
    2.7360   -7.5393   15.5202 C   0  0  0  0  0  0  0  0  0  0  0  0
    3.7080   -6.5749   15.4095 N   0  0  0  0  0  0  0  0  0  0  0  0
    4.6948   -6.4237   16.7207 C   0  0  0  0  0  0  0  0  0  0  0  0
    4.1915   -7.2113   17.7865 C   0  0  0  0  0  0  0  0  0  0  0  0
    2.7650   -8.1311   17.0689 N   0  0  0  0  0  0  0  0  0  0  0  0
    1.5211   -8.5780   17.5693 C   0  0  0  0  0  0  0  0  0  0  0  0
   -3.6957   -8.8887   22.4498 H   0  0  0  0  0  0  0  0  0  0  0  0
   -4.7274   -9.6485   21.2363 H   0  0  0  0  0  0  0  0  0  0  0  0
   -4.2193   -7.9687   21.0313 H   0  0  0  0  0  0  0  0  0  0  0  0
   -2.3014  -10.3703   21.0152 H   0  0  0  0  0  0  0  0  0  0  0  0
   -1.8376   -8.7034   20.9024 H   0  0  0  0  0  0  0  0  0  0  0  0
   -3.5686   -8.7355   18.7751 H   0  0  0  0  0  0  0  0  0  0  0  0
   -2.4311  -11.5166   18.4064 H   0  0  0  0  0  0  0  0  0  0  0  0
   -3.9114  -10.8298   17.7676 H   0  0  0  0  0  0  0  0  0  0  0  0
   -4.8957  -11.3747   20.0929 H   0  0  0  0  0  0  0  0  0  0  0  0
   -6.3513  -12.0793   21.7557 H   0  0  0  0  0  0  0  0  0  0  0  0
   -6.2879  -15.9532   22.8748 H   0  0  0  0  0  0  0  0  0  0  0  0
   -4.5086  -15.8978   21.0358 H   0  0  0  0  0  0  0  0  0  0  0  0
   -0.6566   -9.4277   18.8638 H   0  0  0  0  0  0  0  0  0  0  0  0
   -0.3146   -8.1485   14.7073 H   0  0  0  0  0  0  0  0  0  0  0  0
    5.6927   -6.0270   16.6457 H   0  0  0  0  0  0  0  0  0  0  0  0
    4.8803   -7.8239   18.3661 H   0  0  0  0  0  0  0  0  0  0  0  0
    1.4982   -8.7104   18.6367 H   0  0  0  0  0  0  0  0  0  0  0  0
  1  2  1  0
  2  3  1  0
  3  4  1  0
  4  5  1  0
  5  6  1  0
  6  7  2  0
  6  8  1  0
  8  9  1  0
  9 10  2  0
 10 11  1  0
 11 12  1  0
  3 13  1  0
 13 14  1  0
 14 15  2  0
 14 16  1  0
 16 17  1  0
 17 18  2  0
 18 19  1  0
 19 20  2  0
 20 21  1  0
 21 22  2  0
 22 23  1  0
 23 24  1  0
 12  8  2  0
 24 16  2  0
 23 19  1  0
  1 25  1  0
  1 26  1  0
  1 27  1  0
  2 28  1  0
  2 29  1  0
  3 30  1  0
  4 31  1  0
  4 32  1  0
  5 33  1  0
  9 34  1  0
 11 35  1  0
 12 36  1  0
 13 37  1  0
 17 38  1  0
 21 39  1  0
 22 40  1  0
 24 41  1  0
M  END
>  <Energy>  (1081) 
159.91799537258279

>  <compound_id>  (1081) 
25663

>  <target_id>  (1081) 
1

>  <reference_id>  (1081) 
106

>  <inspiration_ids>  (1081) 
[106, 123]

>  <energy_score>  (1081) 
120.00158168700636

>  <distance_score>  (1081) 
15.266454695788603

>  <path>  (1081) 
/opt/xchem-fragalysis-2/maxwin/BulkDock/SCRATCH/511017/C25663-P106/C25663-P106.minimised.mol

>  <scratch_subdir>  (1081) 
/opt/xchem-fragalysis-2/maxwin/BulkDock/SCRATCH/511017/C25663-P106

>  <fragmenstein_runtime>  (1081) 
30.855801105499268

>  <fragmenstein_outcome>  (1081) 
too moved

>  <fragmenstein_mode>  (1081) 
expansion

>  <fragmenstein_error>  (1081) 


$$$$
C25663-P123
     RDKit          3D

 41 43  0  0  0  0  0  0  0  0999 V2000
   -1.7367  -16.2643   14.1228 C   0  0  0  0  0  0  0  0  0  0  0  0
   -0.7745  -15.1210   13.8390 C   0  0  0  0  0  0  0  0  0  0  0  0
    0.2633  -14.8832   14.9485 C   0  0  0  0  0  0  0  0  0  0  0  0
   -0.3854  -14.4243   16.3039 C   0  0  0  0  0  0  0  0  0  0  0  0
   -1.1899  -15.3246   17.1681 N   0  0  0  0  0  0  0  0  0  0  0  0
   -0.8264  -16.5274   17.8828 C   0  0  0  0  0  0  0  0  0  0  0  0
    0.1960  -17.1470   17.8939 O   0  0  0  0  0  0  0  0  0  0  0  0
   -1.8957  -17.0139   18.8495 C   0  0  0  0  0  0  0  0  0  0  0  0
   -3.2304  -16.6085   19.1588 C   0  0  0  0  0  0  0  0  0  0  0  0
   -3.8035  -17.2915   20.1633 N   0  0  0  0  0  0  0  0  0  0  0  0
   -2.8526  -18.1664   20.5242 N   0  0  0  0  0  0  0  0  0  0  0  0
   -1.7155  -18.0446   19.7759 C   0  0  0  0  0  0  0  0  0  0  0  0
    1.3605  -13.9633   14.4238 N   0  0  0  0  0  0  0  0  0  0  0  0
    1.2854  -12.6971   13.7093 C   0  0  0  0  0  0  0  0  0  0  0  0
    0.3388  -12.0951   13.2829 O   0  0  0  0  0  0  0  0  0  0  0  0
    2.6648  -12.0540   13.3800 C   0  0  0  0  0  0  0  0  0  0  0  0
    3.9150  -12.8042   13.0216 C   0  0  0  0  0  0  0  0  0  0  0  0
    5.0914  -12.3248   12.7362 N   0  0  0  0  0  0  0  0  0  0  0  0
    5.2145  -10.9728   12.7033 C   0  0  0  0  0  0  0  0  0  0  0  0
    6.2957  -10.2406   12.5400 N   0  0  0  0  0  0  0  0  0  0  0  0
    5.8622   -8.9507   12.4899 C   0  0  0  0  0  0  0  0  0  0  0  0
    4.4984   -8.8810   12.6635 C   0  0  0  0  0  0  0  0  0  0  0  0
    4.0919  -10.1773   12.8786 N   0  0  0  0  0  0  0  0  0  0  0  0
    2.8419  -10.7150   13.2279 C   0  0  0  0  0  0  0  0  0  0  0  0
   -1.1982  -17.1772   14.3957 H   0  0  0  0  0  0  0  0  0  0  0  0
   -2.4336  -16.0135   14.9266 H   0  0  0  0  0  0  0  0  0  0  0  0
   -2.3346  -16.4788   13.2309 H   0  0  0  0  0  0  0  0  0  0  0  0
   -1.3497  -14.2058   13.6558 H   0  0  0  0  0  0  0  0  0  0  0  0
   -0.2476  -15.3469   12.9030 H   0  0  0  0  0  0  0  0  0  0  0  0
    0.7878  -15.8275   15.1405 H   0  0  0  0  0  0  0  0  0  0  0  0
   -1.0261  -13.5580   16.1177 H   0  0  0  0  0  0  0  0  0  0  0  0
    0.4329  -14.1059   16.9529 H   0  0  0  0  0  0  0  0  0  0  0  0
   -2.1117  -15.0330   17.4612 H   0  0  0  0  0  0  0  0  0  0  0  0
   -3.8130  -15.8250   18.6926 H   0  0  0  0  0  0  0  0  0  0  0  0
   -3.0411  -18.8103   21.2865 H   0  0  0  0  0  0  0  0  0  0  0  0
   -0.8547  -18.6716   19.9669 H   0  0  0  0  0  0  0  0  0  0  0  0
    2.3264  -14.1298   14.7074 H   0  0  0  0  0  0  0  0  0  0  0  0
    3.8030  -13.9020   13.0011 H   0  0  0  0  0  0  0  0  0  0  0  0
    6.5776   -8.1597   12.3385 H   0  0  0  0  0  0  0  0  0  0  0  0
    3.8055   -8.0529   12.6859 H   0  0  0  0  0  0  0  0  0  0  0  0
    2.0323  -10.0061   13.3595 H   0  0  0  0  0  0  0  0  0  0  0  0
  1  2  1  0
  2  3  1  0
  3  4  1  0
  4  5  1  0
  5  6  1  0
  6  7  2  0
  6  8  1  0
  8  9  1  0
  9 10  2  0
 10 11  1  0
 11 12  1  0
  3 13  1  0
 13 14  1  0
 14 15  2  0
 14 16  1  0
 16 17  1  0
 17 18  2  0
 18 19  1  0
 19 20  2  0
 20 21  1  0
 21 22  2  0
 22 23  1  0
 23 24  1  0
 12  8  2  0
 24 16  2  0
 23 19  1  0
  1 25  1  0
  1 26  1  0
  1 27  1  0
  2 28  1  0
  2 29  1  0
  3 30  1  0
  4 31  1  0
  4 32  1  0
  5 33  1  0
  9 34  1  0
 11 35  1  0
 12 36  1  0
 13 37  1  0
 17 38  1  0
 21 39  1  0
 22 40  1  0
 24 41  1  0
M  END
>  <Energy>  (1082) 
27.452767867169886

>  <compound_id>  (1082) 
25663

>  <target_id>  (1082) 
1

>  <reference_id>  (1082) 
123

>  <inspiration_ids>  (1082) 
[106, 123]

>  <energy_score>  (1082) 
-12.463645818399527

>  <distance_score>  (1082) 
16.37204113690583

>  <path>  (1082) 
/opt/xchem-fragalysis-2/maxwin/BulkDock/SCRATCH/511017/C25663-P123/C25663-P123.minimised.mol

>  <scratch_subdir>  (1082) 
/opt/xchem-fragalysis-2/maxwin/BulkDock/SCRATCH/511017/C25663-P123

>  <fragmenstein_runtime>  (1082) 
41.58091855049133

>  <fragmenstein_outcome>  (1082) 
too moved

>  <fragmenstein_mode>  (1082) 
expansion

>  <fragmenstein_error>  (1082) 


$$$$
C25664-P106
     RDKit          3D

 38 40  0  0  0  0  0  0  0  0999 V2000
   -1.6242   -3.9806   25.0552 C   0  0  0  0  0  0  0  0  0  0  0  0
   -0.5296   -4.9595   24.6243 C   0  0  0  0  0  0  0  0  0  0  0  0
   -1.1938   -6.3260   24.2129 C   0  0  0  0  0  0  0  0  0  0  0  0
   -1.9594   -7.1630   25.1835 N   0  0  0  0  0  0  0  0  0  0  0  0
   -3.1409   -7.9935   25.0002 C   0  0  0  0  0  0  0  0  0  0  0  0
   -3.8407   -8.1497   24.0433 O   0  0  0  0  0  0  0  0  0  0  0  0
   -3.5151   -8.8971   26.1527 C   0  0  0  0  0  0  0  0  0  0  0  0
   -4.5338   -9.9222   26.0971 C   0  0  0  0  0  0  0  0  0  0  0  0
   -4.6336  -10.6631   27.2061 N   0  0  0  0  0  0  0  0  0  0  0  0
   -3.7156  -10.1201   28.0145 N   0  0  0  0  0  0  0  0  0  0  0  0
   -3.0273   -9.0726   27.4379 C   0  0  0  0  0  0  0  0  0  0  0  0
    0.3532   -4.3000   23.5740 N   0  0  0  0  0  0  0  0  0  0  0  0
    1.0724   -3.0341   23.5910 C   0  0  0  0  0  0  0  0  0  0  0  0
    1.0862   -2.1530   24.4085 O   0  0  0  0  0  0  0  0  0  0  0  0
    2.0035   -2.7431   22.3798 C   0  0  0  0  0  0  0  0  0  0  0  0
    1.9227   -3.2514   20.9695 C   0  0  0  0  0  0  0  0  0  0  0  0
    2.6752   -2.9368   19.9483 N   0  0  0  0  0  0  0  0  0  0  0  0
    3.6862   -2.0501   20.1785 C   0  0  0  0  0  0  0  0  0  0  0  0
    4.5434   -1.5000   19.3363 N   0  0  0  0  0  0  0  0  0  0  0  0
    5.3432   -0.6840   20.0892 C   0  0  0  0  0  0  0  0  0  0  0  0
    4.9778   -0.7248   21.4127 C   0  0  0  0  0  0  0  0  0  0  0  0
    3.8845   -1.5572   21.4611 N   0  0  0  0  0  0  0  0  0  0  0  0
    3.0443   -1.8824   22.5280 C   0  0  0  0  0  0  0  0  0  0  0  0
   -2.2552   -4.4127   25.8385 H   0  0  0  0  0  0  0  0  0  0  0  0
   -2.2638   -3.7104   24.2079 H   0  0  0  0  0  0  0  0  0  0  0  0
   -1.1950   -3.0558   25.4533 H   0  0  0  0  0  0  0  0  0  0  0  0
    0.1250   -5.1309   25.4855 H   0  0  0  0  0  0  0  0  0  0  0  0
   -1.9048   -6.1324   23.4053 H   0  0  0  0  0  0  0  0  0  0  0  0
   -0.4190   -6.9848   23.8054 H   0  0  0  0  0  0  0  0  0  0  0  0
   -1.5705   -7.3397   26.0999 H   0  0  0  0  0  0  0  0  0  0  0  0
   -5.1828  -10.1454   25.2577 H   0  0  0  0  0  0  0  0  0  0  0  0
   -3.6065  -10.5066   28.9474 H   0  0  0  0  0  0  0  0  0  0  0  0
   -2.2560   -8.5657   27.9984 H   0  0  0  0  0  0  0  0  0  0  0  0
    0.6445   -4.8352   22.7642 H   0  0  0  0  0  0  0  0  0  0  0  0
    1.1028   -3.9625   20.7873 H   0  0  0  0  0  0  0  0  0  0  0  0
    6.1345   -0.1060   19.6343 H   0  0  0  0  0  0  0  0  0  0  0  0
    5.3520   -0.2206   22.2911 H   0  0  0  0  0  0  0  0  0  0  0  0
    3.2660   -1.4030   23.4746 H   0  0  0  0  0  0  0  0  0  0  0  0
  1  2  1  0
  2  3  1  0
  3  4  1  0
  4  5  1  0
  5  6  2  0
  5  7  1  0
  7  8  1  0
  8  9  2  0
  9 10  1  0
 10 11  1  0
  2 12  1  0
 12 13  1  0
 13 14  2  0
 13 15  1  0
 15 16  1  0
 16 17  2  0
 17 18  1  0
 18 19  2  0
 19 20  1  0
 20 21  2  0
 21 22  1  0
 22 23  1  0
 11  7  2  0
 23 15  2  0
 22 18  1  0
  1 24  1  0
  1 25  1  0
  1 26  1  0
  2 27  1  0
  3 28  1  0
  3 29  1  0
  4 30  1  0
  8 31  1  0
 10 32  1  0
 11 33  1  0
 12 34  1  0
 16 35  1  0
 20 36  1  0
 21 37  1  0
 23 38  1  0
M  END
>  <Energy>  (1083) 
31.884498634931568

>  <compound_id>  (1083) 
25664

>  <target_id>  (1083) 
1

>  <reference_id>  (1083) 
106

>  <inspiration_ids>  (1083) 
[106, 123]

>  <energy_score>  (1083) 
-0.22761341733428253

>  <distance_score>  (1083) 
15.494935174591225

>  <path>  (1083) 
/opt/xchem-fragalysis-2/maxwin/BulkDock/SCRATCH/511017/C25664-P106/C25664-P106.minimised.mol

>  <scratch_subdir>  (1083) 
/opt/xchem-fragalysis-2/maxwin/BulkDock/SCRATCH/511017/C25664-P106

>  <fragmenstein_runtime>  (1083) 
38.89603590965271

>  <fragmenstein_outcome>  (1083) 
too moved

>  <fragmenstein_mode>  (1083) 
expansion

>  <fragmenstein_error>  (1083) 


$$$$
C25664-P123
     RDKit          3D

 38 40  0  0  0  0  0  0  0  0999 V2000
    5.1900   -7.5702   29.4846 C   0  0  0  0  0  0  0  0  0  0  0  0
    6.2594   -8.4048   28.7962 C   0  0  0  0  0  0  0  0  0  0  0  0
    5.7884   -9.8680   28.4676 C   0  0  0  0  0  0  0  0  0  0  0  0
    4.7762  -10.6496   29.2438 N   0  0  0  0  0  0  0  0  0  0  0  0
    3.3523  -10.4475   29.4231 C   0  0  0  0  0  0  0  0  0  0  0  0
    2.6415   -9.5565   29.0601 O   0  0  0  0  0  0  0  0  0  0  0  0
    2.6264  -11.6033   30.0909 C   0  0  0  0  0  0  0  0  0  0  0  0
    3.0246  -12.8582   30.6390 C   0  0  0  0  0  0  0  0  0  0  0  0
    2.0095  -13.6443   31.0307 N   0  0  0  0  0  0  0  0  0  0  0  0
    0.9213  -12.9298   30.7186 N   0  0  0  0  0  0  0  0  0  0  0  0
    1.2335  -11.7144   30.1746 C   0  0  0  0  0  0  0  0  0  0  0  0
    6.8015   -7.6466   27.5989 N   0  0  0  0  0  0  0  0  0  0  0  0
    7.9973   -7.8507   26.8069 C   0  0  0  0  0  0  0  0  0  0  0  0
    8.8226   -8.7211   26.8484 O   0  0  0  0  0  0  0  0  0  0  0  0
    8.3016   -6.7363   25.7528 C   0  0  0  0  0  0  0  0  0  0  0  0
    7.3978   -5.6665   25.1975 C   0  0  0  0  0  0  0  0  0  0  0  0
    7.6700   -4.7583   24.2982 N   0  0  0  0  0  0  0  0  0  0  0  0
    8.9022   -4.8136   23.7204 C   0  0  0  0  0  0  0  0  0  0  0  0
    9.3887   -4.1202   22.7061 N   0  0  0  0  0  0  0  0  0  0  0  0
   10.6692   -4.5852   22.5225 C   0  0  0  0  0  0  0  0  0  0  0  0
   10.9622   -5.5871   23.4176 C   0  0  0  0  0  0  0  0  0  0  0  0
    9.8246   -5.7513   24.1667 N   0  0  0  0  0  0  0  0  0  0  0  0
    9.5273   -6.6796   25.1696 C   0  0  0  0  0  0  0  0  0  0  0  0
    5.5803   -6.5788   29.7404 H   0  0  0  0  0  0  0  0  0  0  0  0
    4.3257   -7.4196   28.8364 H   0  0  0  0  0  0  0  0  0  0  0  0
    4.8539   -8.0424   30.4127 H   0  0  0  0  0  0  0  0  0  0  0  0
    7.1106   -8.4944   29.4825 H   0  0  0  0  0  0  0  0  0  0  0  0
    5.3834   -9.8292   27.4618 H   0  0  0  0  0  0  0  0  0  0  0  0
    6.6750  -10.5104   28.4058 H   0  0  0  0  0  0  0  0  0  0  0  0
    5.0600  -11.4760   29.7567 H   0  0  0  0  0  0  0  0  0  0  0  0
    4.0280  -13.2462   30.7581 H   0  0  0  0  0  0  0  0  0  0  0  0
    0.0048  -13.3280   30.9009 H   0  0  0  0  0  0  0  0  0  0  0  0
    0.4534  -11.0342   29.8614 H   0  0  0  0  0  0  0  0  0  0  0  0
    6.3852   -6.7608   27.3453 H   0  0  0  0  0  0  0  0  0  0  0  0
    6.3792   -5.6523   25.6156 H   0  0  0  0  0  0  0  0  0  0  0  0
   11.3192   -4.1794   21.7577 H   0  0  0  0  0  0  0  0  0  0  0  0
   11.8479   -6.1859   23.5693 H   0  0  0  0  0  0  0  0  0  0  0  0
   10.3216   -7.3733   25.4222 H   0  0  0  0  0  0  0  0  0  0  0  0
  1  2  1  0
  2  3  1  0
  3  4  1  0
  4  5  1  0
  5  6  2  0
  5  7  1  0
  7  8  1  0
  8  9  2  0
  9 10  1  0
 10 11  1  0
  2 12  1  0
 12 13  1  0
 13 14  2  0
 13 15  1  0
 15 16  1  0
 16 17  2  0
 17 18  1  0
 18 19  2  0
 19 20  1  0
 20 21  2  0
 21 22  1  0
 22 23  1  0
 11  7  2  0
 23 15  2  0
 22 18  1  0
  1 24  1  0
  1 25  1  0
  1 26  1  0
  2 27  1  0
  3 28  1  0
  3 29  1  0
  4 30  1  0
  8 31  1  0
 10 32  1  0
 11 33  1  0
 12 34  1  0
 16 35  1  0
 20 36  1  0
 21 37  1  0
 23 38  1  0
M  END
>  <Energy>  (1084) 
31.125837662586292

>  <compound_id>  (1084) 
25664

>  <target_id>  (1084) 
1

>  <reference_id>  (1084) 
123

>  <inspiration_ids>  (1084) 
[106, 123]

>  <energy_score>  (1084) 
-0.9862743896762822

>  <distance_score>  (1084) 
15.780910806341987

>  <path>  (1084) 
/opt/xchem-fragalysis-2/maxwin/BulkDock/SCRATCH/511017/C25664-P123/C25664-P123.minimised.mol

>  <scratch_subdir>  (1084) 
/opt/xchem-fragalysis-2/maxwin/BulkDock/SCRATCH/511017/C25664-P123

>  <fragmenstein_runtime>  (1084) 
34.01658391952515

>  <fragmenstein_outcome>  (1084) 
too moved

>  <fragmenstein_mode>  (1084) 
expansion

>  <fragmenstein_error>  (1084) 


$$$$
C25665-P106
     RDKit          3D

 42 44  0  0  0  0  0  0  0  0999 V2000
    4.4688  -12.9890   19.4310 C   0  0  0  0  0  0  0  0  0  0  0  0
    5.2725  -13.1063   20.5291 N   0  0  0  0  0  0  0  0  0  0  0  0
    3.6227  -13.4670   21.3609 C   0  0  0  0  0  0  0  0  0  0  0  0
    3.2495  -13.9968   23.2500 C   0  0  0  0  0  0  0  0  0  0  0  0
    2.7602  -12.7985   23.8280 O   0  0  0  0  0  0  0  0  0  0  0  0
    4.3761  -14.9543   24.2479 C   0  0  0  0  0  0  0  0  0  0  0  0
    4.3559  -15.1241   25.7193 N   0  0  0  0  0  0  0  0  0  0  0  0
    4.7077  -16.2679   26.5520 C   0  0  0  0  0  0  0  0  0  0  0  0
    5.1830  -17.3265   26.2600 O   0  0  0  0  0  0  0  0  0  0  0  0
    4.3103  -16.1473   27.9994 C   0  0  0  0  0  0  0  0  0  0  0  0
    3.4885  -15.2134   28.6989 C   0  0  0  0  0  0  0  0  0  0  0  0
    2.9317  -15.6974   29.8190 N   0  0  0  0  0  0  0  0  0  0  0  0
    3.3788  -16.9607   29.8686 N   0  0  0  0  0  0  0  0  0  0  0  0
    4.2195  -17.2636   28.8369 C   0  0  0  0  0  0  0  0  0  0  0  0
    6.1092  -12.0277   20.6174 C   0  0  0  0  0  0  0  0  0  0  0  0
    5.8777  -11.0723   21.1914 O   0  0  0  0  0  0  0  0  0  0  0  0
    7.3972  -11.8540   19.8678 C   0  0  0  0  0  0  0  0  0  0  0  0
    8.8410  -12.3649   19.6857 C   0  0  0  0  0  0  0  0  0  0  0  0
    9.9593  -12.1097   18.7519 N   0  0  0  0  0  0  0  0  0  0  0  0
   10.1226  -10.9287   18.2192 C   0  0  0  0  0  0  0  0  0  0  0  0
   11.1990  -10.2866   18.8417 N   0  0  0  0  0  0  0  0  0  0  0  0
   10.6706   -9.0584   19.7474 C   0  0  0  0  0  0  0  0  0  0  0  0
    9.3869   -8.8074   19.4125 C   0  0  0  0  0  0  0  0  0  0  0  0
    8.8077  -10.1802   18.3996 N   0  0  0  0  0  0  0  0  0  0  0  0
    7.5605  -10.7054   19.1519 C   0  0  0  0  0  0  0  0  0  0  0  0
    3.7766  -12.3612   19.7002 H   0  0  0  0  0  0  0  0  0  0  0  0
    5.0619  -12.3320   18.8335 H   0  0  0  0  0  0  0  0  0  0  0  0
    4.1475  -13.8178   18.7949 H   0  0  0  0  0  0  0  0  0  0  0  0
    3.5334  -12.4490   21.7011 H   0  0  0  0  0  0  0  0  0  0  0  0
    2.8709  -13.9118   20.7166 H   0  0  0  0  0  0  0  0  0  0  0  0
    2.4344  -14.6466   23.2271 H   0  0  0  0  0  0  0  0  0  0  0  0
    2.4185  -12.9426   24.7276 H   0  0  0  0  0  0  0  0  0  0  0  0
    4.0503  -15.8748   23.7666 H   0  0  0  0  0  0  0  0  0  0  0  0
    5.2747  -15.3896   23.9399 H   0  0  0  0  0  0  0  0  0  0  0  0
    4.0518  -14.3616   26.3144 H   0  0  0  0  0  0  0  0  0  0  0  0
    3.1955  -14.2195   28.3927 H   0  0  0  0  0  0  0  0  0  0  0  0
    3.0660  -17.5617   30.6252 H   0  0  0  0  0  0  0  0  0  0  0  0
    4.5936  -18.2706   28.7069 H   0  0  0  0  0  0  0  0  0  0  0  0
    8.9756  -13.4542   20.0424 H   0  0  0  0  0  0  0  0  0  0  0  0
   11.1827   -8.6037   20.6127 H   0  0  0  0  0  0  0  0  0  0  0  0
    8.4397   -8.7534   19.0054 H   0  0  0  0  0  0  0  0  0  0  0  0
    6.5545  -10.5290   18.8233 H   0  0  0  0  0  0  0  0  0  0  0  0
  1  2  1  0
  2  3  1  0
  3  4  1  0
  4  5  1  0
  4  6  1  0
  6  7  1  0
  7  8  1  0
  8  9  2  0
  8 10  1  0
 10 11  1  0
 11 12  2  0
 12 13  1  0
 13 14  1  0
  2 15  1  0
 15 16  2  0
 15 17  1  0
 17 18  1  0
 18 19  2  0
 19 20  1  0
 20 21  2  0
 21 22  1  0
 22 23  2  0
 23 24  1  0
 24 25  1  0
 14 10  2  0
 25 17  2  0
 24 20  1  0
  1 26  1  0
  1 27  1  0
  1 28  1  0
  3 29  1  0
  3 30  1  0
  4 31  1  0
  5 32  1  0
  6 33  1  0
  6 34  1  0
  7 35  1  0
 11 36  1  0
 13 37  1  0
 14 38  1  0
 18 39  1  0
 22 40  1  0
 23 41  1  0
 25 42  1  0
M  END
>  <Energy>  (1085) 
566.8916875484864

>  <compound_id>  (1085) 
25665

>  <target_id>  (1085) 
1

>  <reference_id>  (1085) 
106

>  <inspiration_ids>  (1085) 
[106, 123]

>  <energy_score>  (1085) 
502.5200050398389

>  <distance_score>  (1085) 
15.295896536885977

>  <path>  (1085) 
/opt/xchem-fragalysis-2/maxwin/BulkDock/SCRATCH/511017/C25665-P106/C25665-P106.minimised.mol

>  <scratch_subdir>  (1085) 
/opt/xchem-fragalysis-2/maxwin/BulkDock/SCRATCH/511017/C25665-P106

>  <fragmenstein_runtime>  (1085) 
30.88429880142212

>  <fragmenstein_outcome>  (1085) 
too moved

>  <fragmenstein_mode>  (1085) 
expansion

>  <fragmenstein_error>  (1085) 


$$$$
C25665-P123
     RDKit          3D

 42 44  0  0  0  0  0  0  0  0999 V2000
    0.6367  -17.6397   19.1949 C   0  0  0  0  0  0  0  0  0  0  0  0
    1.2445  -15.9354   19.8935 N   0  0  0  0  0  0  0  0  0  0  0  0
   -0.6805  -16.0637   20.0455 C   0  0  0  0  0  0  0  0  0  0  0  0
   -1.8642  -17.2708   20.6074 C   0  0  0  0  0  0  0  0  0  0  0  0
   -1.3216  -18.4519   21.1539 O   0  0  0  0  0  0  0  0  0  0  0  0
   -2.8619  -16.5393   21.6001 C   0  0  0  0  0  0  0  0  0  0  0  0
   -3.5668  -17.1726   22.7298 N   0  0  0  0  0  0  0  0  0  0  0  0
   -3.1659  -18.2268   23.6216 C   0  0  0  0  0  0  0  0  0  0  0  0
   -2.1896  -18.9142   23.6238 O   0  0  0  0  0  0  0  0  0  0  0  0
   -4.0892  -18.4093   24.7865 C   0  0  0  0  0  0  0  0  0  0  0  0
   -5.3228  -17.8178   25.1719 C   0  0  0  0  0  0  0  0  0  0  0  0
   -5.7623  -18.2096   26.3761 N   0  0  0  0  0  0  0  0  0  0  0  0
   -4.8057  -19.0499   26.8020 N   0  0  0  0  0  0  0  0  0  0  0  0
   -3.8258  -19.2425   25.8723 C   0  0  0  0  0  0  0  0  0  0  0  0
    2.5331  -14.7375   18.7595 C   0  0  0  0  0  0  0  0  0  0  0  0
    1.8515  -13.9903   18.0530 O   0  0  0  0  0  0  0  0  0  0  0  0
    4.6851  -14.1693   18.4899 C   0  0  0  0  0  0  0  0  0  0  0  0
    5.1639  -15.3033   16.8809 C   0  0  0  0  0  0  0  0  0  0  0  0
    6.5753  -15.2014   15.6764 N   0  0  0  0  0  0  0  0  0  0  0  0
    7.4196  -13.6005   15.2490 C   0  0  0  0  0  0  0  0  0  0  0  0
    8.6762  -13.4054   14.6987 N   0  0  0  0  0  0  0  0  0  0  0  0
    9.4402  -12.3201   15.3634 C   0  0  0  0  0  0  0  0  0  0  0  0
    8.9259  -11.6964   16.5170 C   0  0  0  0  0  0  0  0  0  0  0  0
    7.5823  -12.4037   16.8784 N   0  0  0  0  0  0  0  0  0  0  0  0
    6.1932  -12.8731   18.5304 C   0  0  0  0  0  0  0  0  0  0  0  0
    1.2505  -18.0611   18.3712 H   0  0  0  0  0  0  0  0  0  0  0  0
   -0.3771  -17.7220   18.7486 H   0  0  0  0  0  0  0  0  0  0  0  0
    0.3611  -18.2855   20.0485 H   0  0  0  0  0  0  0  0  0  0  0  0
   -1.3211  -15.3851   19.4515 H   0  0  0  0  0  0  0  0  0  0  0  0
   -0.5013  -16.1062   21.1484 H   0  0  0  0  0  0  0  0  0  0  0  0
   -2.4224  -17.5665   19.7113 H   0  0  0  0  0  0  0  0  0  0  0  0
   -1.3553  -18.4704   22.1309 H   0  0  0  0  0  0  0  0  0  0  0  0
   -2.3095  -15.7353   22.0941 H   0  0  0  0  0  0  0  0  0  0  0  0
   -3.6292  -16.0360   21.0001 H   0  0  0  0  0  0  0  0  0  0  0  0
   -4.4158  -16.7523   23.0782 H   0  0  0  0  0  0  0  0  0  0  0  0
   -5.9236  -17.0989   24.6315 H   0  0  0  0  0  0  0  0  0  0  0  0
   -4.8765  -19.4404   27.7381 H   0  0  0  0  0  0  0  0  0  0  0  0
   -2.9893  -19.9003   26.0691 H   0  0  0  0  0  0  0  0  0  0  0  0
    4.4965  -15.9128   16.2678 H   0  0  0  0  0  0  0  0  0  0  0  0
   10.3931  -12.0755   14.9086 H   0  0  0  0  0  0  0  0  0  0  0  0
    9.2670  -10.9347   17.1983 H   0  0  0  0  0  0  0  0  0  0  0  0
    6.0444  -11.9905   19.1941 H   0  0  0  0  0  0  0  0  0  0  0  0
  1  2  1  0
  2  3  1  0
  3  4  1  0
  4  5  1  0
  4  6  1  0
  6  7  1  0
  7  8  1  0
  8  9  2  0
  8 10  1  0
 10 11  1  0
 11 12  2  0
 12 13  1  0
 13 14  1  0
  2 15  1  0
 15 16  2  0
 15 17  1  0
 17 18  1  0
 18 19  2  0
 19 20  1  0
 20 21  2  0
 21 22  1  0
 22 23  2  0
 23 24  1  0
 24 25  1  0
 14 10  2  0
 25 17  2  0
 24 20  1  0
  1 26  1  0
  1 27  1  0
  1 28  1  0
  3 29  1  0
  3 30  1  0
  4 31  1  0
  5 32  1  0
  6 33  1  0
  6 34  1  0
  7 35  1  0
 11 36  1  0
 13 37  1  0
 14 38  1  0
 18 39  1  0
 22 40  1  0
 23 41  1  0
 25 42  1  0
M  END
>  <Energy>  (1086) 
1729.378754185125

>  <compound_id>  (1086) 
25665

>  <target_id>  (1086) 
1

>  <reference_id>  (1086) 
123

>  <inspiration_ids>  (1086) 
[106, 123]

>  <energy_score>  (1086) 
1665.0070716764621

>  <distance_score>  (1086) 
13.670864866297254

>  <path>  (1086) 
/opt/xchem-fragalysis-2/maxwin/BulkDock/SCRATCH/511017/C25665-P123/C25665-P123.minimised.mol

>  <scratch_subdir>  (1086) 
/opt/xchem-fragalysis-2/maxwin/BulkDock/SCRATCH/511017/C25665-P123

>  <fragmenstein_runtime>  (1086) 
32.54176068305969

>  <fragmenstein_outcome>  (1086) 
too moved

>  <fragmenstein_mode>  (1086) 
expansion

>  <fragmenstein_error>  (1086) 


$$$$
C25666-P106
     RDKit          3D

 41 43  0  0  0  0  0  0  0  0999 V2000
   -2.1761  -18.9514   23.5886 C   0  0  0  0  0  0  0  0  0  0  0  0
   -3.6168  -19.1926   23.6890 N   0  0  0  0  0  0  0  0  0  0  0  0
   -3.6754  -17.8624   22.8860 C   0  0  0  0  0  0  0  0  0  0  0  0
   -2.9989  -17.4029   21.4768 C   0  0  0  0  0  0  0  0  0  0  0  0
   -2.7164  -15.8381   21.2148 N   0  0  0  0  0  0  0  0  0  0  0  0
   -1.7204  -16.0694   22.1916 C   0  0  0  0  0  0  0  0  0  0  0  0
   -2.1489  -15.1530   20.0781 C   0  0  0  0  0  0  0  0  0  0  0  0
   -1.6752  -15.6242   19.1027 O   0  0  0  0  0  0  0  0  0  0  0  0
   -2.2237  -13.3002   19.9150 C   0  0  0  0  0  0  0  0  0  0  0  0
   -2.6995  -12.1434   20.4977 C   0  0  0  0  0  0  0  0  0  0  0  0
   -2.0891  -11.0712   19.9733 N   0  0  0  0  0  0  0  0  0  0  0  0
   -1.7362   -9.8621   20.5224 C   0  0  0  0  0  0  0  0  0  0  0  0
   -1.4320   -8.9514   19.6061 C   0  0  0  0  0  0  0  0  0  0  0  0
   -2.0330   -9.2029   18.2866 C   0  0  0  0  0  0  0  0  0  0  0  0
   -2.3335  -10.3491   17.7719 N   0  0  0  0  0  0  0  0  0  0  0  0
   -2.1293  -11.3684   18.6361 C   0  0  0  0  0  0  0  0  0  0  0  0
   -1.9786  -12.6817   18.5321 N   0  0  0  0  0  0  0  0  0  0  0  0
   -3.9698  -19.4777   25.0466 C   0  0  0  0  0  0  0  0  0  0  0  0
   -4.3141  -18.7452   25.9312 O   0  0  0  0  0  0  0  0  0  0  0  0
   -3.8187  -20.8953   25.4071 C   0  0  0  0  0  0  0  0  0  0  0  0
   -3.7270  -21.4183   26.7247 C   0  0  0  0  0  0  0  0  0  0  0  0
   -3.7403  -22.7519   26.7714 N   0  0  0  0  0  0  0  0  0  0  0  0
   -3.8417  -23.0919   25.4741 N   0  0  0  0  0  0  0  0  0  0  0  0
   -3.8359  -22.0266   24.6200 C   0  0  0  0  0  0  0  0  0  0  0  0
   -1.7172  -19.0297   22.6041 H   0  0  0  0  0  0  0  0  0  0  0  0
   -1.8692  -18.1440   24.2584 H   0  0  0  0  0  0  0  0  0  0  0  0
   -1.7017  -19.8162   24.0821 H   0  0  0  0  0  0  0  0  0  0  0  0
   -4.7463  -17.8780   22.6193 H   0  0  0  0  0  0  0  0  0  0  0  0
   -3.6998  -17.0517   23.6311 H   0  0  0  0  0  0  0  0  0  0  0  0
   -3.7985  -17.5717   20.7369 H   0  0  0  0  0  0  0  0  0  0  0  0
   -2.2103  -18.0399   21.0486 H   0  0  0  0  0  0  0  0  0  0  0  0
   -0.9645  -16.7526   21.7858 H   0  0  0  0  0  0  0  0  0  0  0  0
   -1.1437  -15.1699   22.3231 H   0  0  0  0  0  0  0  0  0  0  0  0
   -2.1295  -16.1494   23.1971 H   0  0  0  0  0  0  0  0  0  0  0  0
   -3.7421  -11.8896   20.6110 H   0  0  0  0  0  0  0  0  0  0  0  0
   -1.3725   -9.8524   21.5351 H   0  0  0  0  0  0  0  0  0  0  0  0
   -0.5423   -8.3502   19.7149 H   0  0  0  0  0  0  0  0  0  0  0  0
   -2.3703   -8.3275   17.7574 H   0  0  0  0  0  0  0  0  0  0  0  0
   -3.6487  -20.8593   27.6434 H   0  0  0  0  0  0  0  0  0  0  0  0
   -3.9054  -24.0736   25.2304 H   0  0  0  0  0  0  0  0  0  0  0  0
   -3.9219  -22.1630   23.5517 H   0  0  0  0  0  0  0  0  0  0  0  0
  1  2  1  0
  2  3  1  0
  3  4  1  0
  4  5  1  0
  5  6  1  0
  5  7  1  0
  7  8  2  0
  7  9  1  0
  9 10  2  0
 10 11  1  0
 11 12  1  0
 12 13  2  0
 13 14  1  0
 14 15  2  0
 15 16  1  0
 16 17  2  0
  2 18  1  0
 18 19  2  0
 18 20  1  0
 20 21  1  0
 21 22  2  0
 22 23  1  0
 23 24  1  0
 17  9  1  0
 24 20  2  0
 16 11  1  0
  1 25  1  0
  1 26  1  0
  1 27  1  0
  3 28  1  0
  3 29  1  0
  4 30  1  0
  4 31  1  0
  6 32  1  0
  6 33  1  0
  6 34  1  0
 10 35  1  0
 12 36  1  0
 13 37  1  0
 14 38  1  0
 21 39  1  0
 23 40  1  0
 24 41  1  0
M  END
>  <Energy>  (1087) 
349.14950381970874

>  <compound_id>  (1087) 
25666

>  <target_id>  (1087) 
1

>  <reference_id>  (1087) 
106

>  <inspiration_ids>  (1087) 
[106, 123]

>  <energy_score>  (1087) 
244.4244277788432

>  <distance_score>  (1087) 
15.344184518242367

>  <path>  (1087) 
/opt/xchem-fragalysis-2/maxwin/BulkDock/SCRATCH/511017/C25666-P106/C25666-P106.minimised.mol

>  <scratch_subdir>  (1087) 
/opt/xchem-fragalysis-2/maxwin/BulkDock/SCRATCH/511017/C25666-P106

>  <fragmenstein_runtime>  (1087) 
27.742310762405396

>  <fragmenstein_outcome>  (1087) 
too moved

>  <fragmenstein_mode>  (1087) 
expansion

>  <fragmenstein_error>  (1087) 


$$$$
C25666-P123
     RDKit          3D

 41 43  0  0  0  0  0  0  0  0999 V2000
    6.2879  -13.2213   27.6155 C   0  0  0  0  0  0  0  0  0  0  0  0
    5.4951  -12.4604   28.6093 N   0  0  0  0  0  0  0  0  0  0  0  0
    6.4475  -11.2647   28.1124 C   0  0  0  0  0  0  0  0  0  0  0  0
    8.0151  -11.1589   27.7304 C   0  0  0  0  0  0  0  0  0  0  0  0
    8.5077  -10.0055   26.7318 N   0  0  0  0  0  0  0  0  0  0  0  0
    8.6233   -9.2455   28.0073 C   0  0  0  0  0  0  0  0  0  0  0  0
    9.7346   -9.8798   25.9626 C   0  0  0  0  0  0  0  0  0  0  0  0
   10.7238  -10.5681   25.9548 O   0  0  0  0  0  0  0  0  0  0  0  0
    9.8446   -8.6664   25.0208 C   0  0  0  0  0  0  0  0  0  0  0  0
   10.8796   -8.5387   24.0905 C   0  0  0  0  0  0  0  0  0  0  0  0
   10.7661   -7.3073   23.5071 N   0  0  0  0  0  0  0  0  0  0  0  0
   11.5834   -6.6891   22.5633 C   0  0  0  0  0  0  0  0  0  0  0  0
   11.2892   -5.4516   22.1437 C   0  0  0  0  0  0  0  0  0  0  0  0
   10.0615   -4.8735   22.7531 C   0  0  0  0  0  0  0  0  0  0  0  0
    9.2860   -5.4347   23.6338 N   0  0  0  0  0  0  0  0  0  0  0  0
    9.6401   -6.6960   24.0507 C   0  0  0  0  0  0  0  0  0  0  0  0
    9.0815   -7.4948   24.9604 N   0  0  0  0  0  0  0  0  0  0  0  0
    5.4546  -13.1735   29.8599 C   0  0  0  0  0  0  0  0  0  0  0  0
    6.1835  -13.1143   30.8150 O   0  0  0  0  0  0  0  0  0  0  0  0
    4.2232  -14.0605   29.9950 C   0  0  0  0  0  0  0  0  0  0  0  0
    3.0888  -14.3166   29.1618 C   0  0  0  0  0  0  0  0  0  0  0  0
    2.1886  -15.1660   29.6859 N   0  0  0  0  0  0  0  0  0  0  0  0
    2.7254  -15.4895   30.8673 N   0  0  0  0  0  0  0  0  0  0  0  0
    3.9208  -14.8649   31.0954 C   0  0  0  0  0  0  0  0  0  0  0  0
    7.2630  -13.5352   28.0134 H   0  0  0  0  0  0  0  0  0  0  0  0
    5.7609  -14.1814   27.5033 H   0  0  0  0  0  0  0  0  0  0  0  0
    6.2981  -12.8290   26.5892 H   0  0  0  0  0  0  0  0  0  0  0  0
    5.8915  -10.7636   27.3194 H   0  0  0  0  0  0  0  0  0  0  0  0
    6.3344  -10.5892   28.9716 H   0  0  0  0  0  0  0  0  0  0  0  0
    8.6760  -11.3757   28.5863 H   0  0  0  0  0  0  0  0  0  0  0  0
    8.2541  -12.0057   27.0739 H   0  0  0  0  0  0  0  0  0  0  0  0
    9.4553   -9.5716   28.6490 H   0  0  0  0  0  0  0  0  0  0  0  0
    8.9262   -8.2290   27.7150 H   0  0  0  0  0  0  0  0  0  0  0  0
    7.6799   -9.0740   28.5360 H   0  0  0  0  0  0  0  0  0  0  0  0
   11.6873   -9.2148   23.8489 H   0  0  0  0  0  0  0  0  0  0  0  0
   12.4427   -7.2441   22.2110 H   0  0  0  0  0  0  0  0  0  0  0  0
   11.8568   -4.8837   21.4203 H   0  0  0  0  0  0  0  0  0  0  0  0
    9.8034   -3.8633   22.4033 H   0  0  0  0  0  0  0  0  0  0  0  0
    2.8816  -13.9121   28.1829 H   0  0  0  0  0  0  0  0  0  0  0  0
    2.2251  -16.1359   31.4689 H   0  0  0  0  0  0  0  0  0  0  0  0
    4.4642  -15.0257   32.0160 H   0  0  0  0  0  0  0  0  0  0  0  0
  1  2  1  0
  2  3  1  0
  3  4  1  0
  4  5  1  0
  5  6  1  0
  5  7  1  0
  7  8  2  0
  7  9  1  0
  9 10  2  0
 10 11  1  0
 11 12  1  0
 12 13  2  0
 13 14  1  0
 14 15  2  0
 15 16  1  0
 16 17  2  0
  2 18  1  0
 18 19  2  0
 18 20  1  0
 20 21  1  0
 21 22  2  0
 22 23  1  0
 23 24  1  0
 17  9  1  0
 24 20  2  0
 16 11  1  0
  1 25  1  0
  1 26  1  0
  1 27  1  0
  3 28  1  0
  3 29  1  0
  4 30  1  0
  4 31  1  0
  6 32  1  0
  6 33  1  0
  6 34  1  0
 10 35  1  0
 12 36  1  0
 13 37  1  0
 14 38  1  0
 21 39  1  0
 23 40  1  0
 24 41  1  0
M  END
>  <Energy>  (1088) 
219.36151673007984

>  <compound_id>  (1088) 
25666

>  <target_id>  (1088) 
1

>  <reference_id>  (1088) 
123

>  <inspiration_ids>  (1088) 
[106, 123]

>  <energy_score>  (1088) 
114.63644068921167

>  <distance_score>  (1088) 
15.39842902420847

>  <path>  (1088) 
/opt/xchem-fragalysis-2/maxwin/BulkDock/SCRATCH/511017/C25666-P123/C25666-P123.minimised.mol

>  <scratch_subdir>  (1088) 
/opt/xchem-fragalysis-2/maxwin/BulkDock/SCRATCH/511017/C25666-P123

>  <fragmenstein_runtime>  (1088) 
35.66154479980469

>  <fragmenstein_outcome>  (1088) 
too moved

>  <fragmenstein_mode>  (1088) 
expansion

>  <fragmenstein_error>  (1088) 


$$$$
C25667-P106
     RDKit          3D

 42 44  0  0  0  0  0  0  0  0999 V2000
    3.3643  -17.7794   28.2437 C   0  0  0  0  0  0  0  0  0  0  0  0
    3.0215  -16.6088   29.1328 N   0  0  0  0  0  0  0  0  0  0  0  0
    4.4763  -16.1711   28.7344 C   0  0  0  0  0  0  0  0  0  0  0  0
    5.0610  -14.8645   29.4199 C   0  0  0  0  0  0  0  0  0  0  0  0
    4.5800  -14.6920   30.7555 O   0  0  0  0  0  0  0  0  0  0  0  0
    4.8908  -13.5270   28.6296 C   0  0  0  0  0  0  0  0  0  0  0  0
    6.0124  -12.6087   28.1714 N   0  0  0  0  0  0  0  0  0  0  0  0
    6.8082  -12.6163   26.9688 C   0  0  0  0  0  0  0  0  0  0  0  0
    6.8420  -13.3971   26.0627 O   0  0  0  0  0  0  0  0  0  0  0  0
    7.7372  -11.3776   26.6518 C   0  0  0  0  0  0  0  0  0  0  0  0
    8.7905  -11.5422   25.5358 C   0  0  0  0  0  0  0  0  0  0  0  0
    9.4989  -10.6343   24.9251 N   0  0  0  0  0  0  0  0  0  0  0  0
    9.2652   -9.3502   25.2810 C   0  0  0  0  0  0  0  0  0  0  0  0
    9.7303   -8.2392   24.7353 N   0  0  0  0  0  0  0  0  0  0  0  0
    9.2324   -7.2184   25.4972 C   0  0  0  0  0  0  0  0  0  0  0  0
    8.4284   -7.7127   26.4975 C   0  0  0  0  0  0  0  0  0  0  0  0
    8.3870   -9.0754   26.3217 N   0  0  0  0  0  0  0  0  0  0  0  0
    7.6247  -10.0684   26.9827 C   0  0  0  0  0  0  0  0  0  0  0  0
    2.4925  -17.0775   30.3846 C   0  0  0  0  0  0  0  0  0  0  0  0
    3.0500  -17.3366   31.4176 O   0  0  0  0  0  0  0  0  0  0  0  0
    1.0238  -17.3776   30.3394 C   0  0  0  0  0  0  0  0  0  0  0  0
    0.2564  -18.0412   31.3529 C   0  0  0  0  0  0  0  0  0  0  0  0
   -1.0207  -18.2599   31.0167 N   0  0  0  0  0  0  0  0  0  0  0  0
   -1.1089  -17.7128   29.7955 N   0  0  0  0  0  0  0  0  0  0  0  0
    0.0770  -17.1904   29.3451 C   0  0  0  0  0  0  0  0  0  0  0  0
    4.0971  -18.4753   28.6793 H   0  0  0  0  0  0  0  0  0  0  0  0
    3.5445  -17.5370   27.1879 H   0  0  0  0  0  0  0  0  0  0  0  0
    2.4521  -18.3918   28.1957 H   0  0  0  0  0  0  0  0  0  0  0  0
    5.1853  -16.9282   29.1110 H   0  0  0  0  0  0  0  0  0  0  0  0
    4.5951  -16.0118   27.6528 H   0  0  0  0  0  0  0  0  0  0  0  0
    6.1447  -15.0187   29.5033 H   0  0  0  0  0  0  0  0  0  0  0  0
    4.4054  -15.5758   31.1369 H   0  0  0  0  0  0  0  0  0  0  0  0
    4.1994  -12.8737   29.1725 H   0  0  0  0  0  0  0  0  0  0  0  0
    4.4266  -13.8380   27.6956 H   0  0  0  0  0  0  0  0  0  0  0  0
    6.1858  -11.7495   28.6759 H   0  0  0  0  0  0  0  0  0  0  0  0
    8.9624  -12.5897   25.2300 H   0  0  0  0  0  0  0  0  0  0  0  0
    9.4866   -6.1852   25.2965 H   0  0  0  0  0  0  0  0  0  0  0  0
    7.8967   -7.2252   27.2983 H   0  0  0  0  0  0  0  0  0  0  0  0
    6.8958   -9.7019   27.6918 H   0  0  0  0  0  0  0  0  0  0  0  0
    0.6114  -18.3858   32.3169 H   0  0  0  0  0  0  0  0  0  0  0  0
   -2.0072  -17.7275   29.3225 H   0  0  0  0  0  0  0  0  0  0  0  0
    0.1460  -16.7370   28.3667 H   0  0  0  0  0  0  0  0  0  0  0  0
  1  2  1  0
  2  3  1  0
  3  4  1  0
  4  5  1  0
  4  6  1  0
  6  7  1  0
  7  8  1  0
  8  9  2  0
  8 10  1  0
 10 11  1  0
 11 12  2  0
 12 13  1  0
 13 14  2  0
 14 15  1  0
 15 16  2  0
 16 17  1  0
 17 18  1  0
  2 19  1  0
 19 20  2  0
 19 21  1  0
 21 22  1  0
 22 23  2  0
 23 24  1  0
 24 25  1  0
 18 10  2  0
 25 21  2  0
 17 13  1  0
  1 26  1  0
  1 27  1  0
  1 28  1  0
  3 29  1  0
  3 30  1  0
  4 31  1  0
  5 32  1  0
  6 33  1  0
  6 34  1  0
  7 35  1  0
 11 36  1  0
 15 37  1  0
 16 38  1  0
 18 39  1  0
 22 40  1  0
 24 41  1  0
 25 42  1  0
M  END
>  <Energy>  (1089) 
129.26062475812228

>  <compound_id>  (1089) 
25667

>  <target_id>  (1089) 
1

>  <reference_id>  (1089) 
106

>  <inspiration_ids>  (1089) 
[106, 123]

>  <energy_score>  (1089) 
32.840145136185015

>  <distance_score>  (1089) 
14.901814127740343

>  <path>  (1089) 
/opt/xchem-fragalysis-2/maxwin/BulkDock/SCRATCH/511017/C25667-P106/C25667-P106.minimised.mol

>  <scratch_subdir>  (1089) 
/opt/xchem-fragalysis-2/maxwin/BulkDock/SCRATCH/511017/C25667-P106

>  <fragmenstein_runtime>  (1089) 
34.42432165145874

>  <fragmenstein_outcome>  (1089) 
too moved

>  <fragmenstein_mode>  (1089) 
expansion

>  <fragmenstein_error>  (1089) 


$$$$
C25667-P123
     RDKit          3D

 42 44  0  0  0  0  0  0  0  0999 V2000
   -5.6873  -14.9331   19.1775 C   0  0  0  0  0  0  0  0  0  0  0  0
   -4.8873  -14.1512   20.1832 N   0  0  0  0  0  0  0  0  0  0  0  0
   -4.3290  -13.4682   18.8709 C   0  0  0  0  0  0  0  0  0  0  0  0
   -3.5123  -12.0988   18.9857 C   0  0  0  0  0  0  0  0  0  0  0  0
   -2.4358  -12.1878   19.9011 O   0  0  0  0  0  0  0  0  0  0  0  0
   -2.9636  -11.7366   17.5136 C   0  0  0  0  0  0  0  0  0  0  0  0
   -1.9609  -10.6879   17.1463 N   0  0  0  0  0  0  0  0  0  0  0  0
   -1.9110   -9.7689   16.0110 C   0  0  0  0  0  0  0  0  0  0  0  0
   -2.7034   -9.5689   15.1318 O   0  0  0  0  0  0  0  0  0  0  0  0
   -0.5991   -8.9851   15.8130 C   0  0  0  0  0  0  0  0  0  0  0  0
   -0.5159   -7.4836   15.6117 C   0  0  0  0  0  0  0  0  0  0  0  0
    0.4736   -6.7808   15.1226 N   0  0  0  0  0  0  0  0  0  0  0  0
    1.5745   -7.4778   14.7160 C   0  0  0  0  0  0  0  0  0  0  0  0
    2.7114   -7.0557   14.1959 N   0  0  0  0  0  0  0  0  0  0  0  0
    3.4271   -8.1832   13.8841 C   0  0  0  0  0  0  0  0  0  0  0  0
    2.7473   -9.3138   14.2551 C   0  0  0  0  0  0  0  0  0  0  0  0
    1.5666   -8.8621   14.7828 N   0  0  0  0  0  0  0  0  0  0  0  0
    0.4717   -9.5870   15.2466 C   0  0  0  0  0  0  0  0  0  0  0  0
   -4.2547  -15.0505   21.1185 C   0  0  0  0  0  0  0  0  0  0  0  0
   -3.1739  -15.5753   21.0856 O   0  0  0  0  0  0  0  0  0  0  0  0
   -5.1400  -15.4648   22.2591 C   0  0  0  0  0  0  0  0  0  0  0  0
   -4.8754  -16.5153   23.2009 C   0  0  0  0  0  0  0  0  0  0  0  0
   -5.8663  -16.7287   24.0752 N   0  0  0  0  0  0  0  0  0  0  0  0
   -6.7719  -15.8031   23.7361 N   0  0  0  0  0  0  0  0  0  0  0  0
   -6.3976  -15.0411   22.6570 C   0  0  0  0  0  0  0  0  0  0  0  0
   -6.2462  -15.6883   19.7493 H   0  0  0  0  0  0  0  0  0  0  0  0
   -5.0964  -15.5467   18.4804 H   0  0  0  0  0  0  0  0  0  0  0  0
   -6.4897  -14.3450   18.7092 H   0  0  0  0  0  0  0  0  0  0  0  0
   -5.1090  -13.1889   18.1445 H   0  0  0  0  0  0  0  0  0  0  0  0
   -3.6030  -14.1794   18.4446 H   0  0  0  0  0  0  0  0  0  0  0  0
   -4.1797  -11.3029   19.3328 H   0  0  0  0  0  0  0  0  0  0  0  0
   -1.9449  -11.3441   19.8721 H   0  0  0  0  0  0  0  0  0  0  0  0
   -2.4819  -12.6482   17.1369 H   0  0  0  0  0  0  0  0  0  0  0  0
   -3.8320  -11.5601   16.8675 H   0  0  0  0  0  0  0  0  0  0  0  0
   -1.1456  -10.5302   17.7395 H   0  0  0  0  0  0  0  0  0  0  0  0
   -1.4268   -6.9394   15.9163 H   0  0  0  0  0  0  0  0  0  0  0  0
    4.3917   -8.1386   13.3977 H   0  0  0  0  0  0  0  0  0  0  0  0
    2.9811  -10.3635   14.1605 H   0  0  0  0  0  0  0  0  0  0  0  0
    0.4991  -10.6484   15.0339 H   0  0  0  0  0  0  0  0  0  0  0  0
   -3.9884  -17.1362   23.2507 H   0  0  0  0  0  0  0  0  0  0  0  0
   -7.6257  -15.7446   24.2812 H   0  0  0  0  0  0  0  0  0  0  0  0
   -7.0497  -14.2723   22.2693 H   0  0  0  0  0  0  0  0  0  0  0  0
  1  2  1  0
  2  3  1  0
  3  4  1  0
  4  5  1  0
  4  6  1  0
  6  7  1  0
  7  8  1  0
  8  9  2  0
  8 10  1  0
 10 11  1  0
 11 12  2  0
 12 13  1  0
 13 14  2  0
 14 15  1  0
 15 16  2  0
 16 17  1  0
 17 18  1  0
  2 19  1  0
 19 20  2  0
 19 21  1  0
 21 22  1  0
 22 23  2  0
 23 24  1  0
 24 25  1  0
 18 10  2  0
 25 21  2  0
 17 13  1  0
  1 26  1  0
  1 27  1  0
  1 28  1  0
  3 29  1  0
  3 30  1  0
  4 31  1  0
  5 32  1  0
  6 33  1  0
  6 34  1  0
  7 35  1  0
 11 36  1  0
 15 37  1  0
 16 38  1  0
 18 39  1  0
 22 40  1  0
 24 41  1  0
 25 42  1  0
M  END
>  <Energy>  (1090) 
135.86059360055538

>  <compound_id>  (1090) 
25667

>  <target_id>  (1090) 
1

>  <reference_id>  (1090) 
123

>  <inspiration_ids>  (1090) 
[106, 123]

>  <energy_score>  (1090) 
39.440113978621866

>  <distance_score>  (1090) 
14.803503604134466

>  <path>  (1090) 
/opt/xchem-fragalysis-2/maxwin/BulkDock/SCRATCH/511017/C25667-P123/C25667-P123.minimised.mol

>  <scratch_subdir>  (1090) 
/opt/xchem-fragalysis-2/maxwin/BulkDock/SCRATCH/511017/C25667-P123

>  <fragmenstein_runtime>  (1090) 
35.008182764053345

>  <fragmenstein_outcome>  (1090) 
too moved

>  <fragmenstein_mode>  (1090) 
expansion

>  <fragmenstein_error>  (1090) 


$$$$
C25659-P106
     RDKit          3D

 35 38  0  0  0  0  0  0  0  0999 V2000
  -10.0065  -24.0833   24.1892 O   0  0  0  0  0  0  0  0  0  0  0  0
  -10.8822  -23.2673   24.1658 C   0  0  0  0  0  0  0  0  0  0  0  0
  -11.0436  -22.0258   23.3095 N   0  0  0  0  0  0  0  0  0  0  0  0
  -10.1126  -21.3950   22.3133 C   0  0  0  0  0  0  0  0  0  0  0  0
   -8.8078  -21.8854   22.0702 C   0  0  0  0  0  0  0  0  0  0  0  0
   -7.7602  -21.1488   21.3631 C   0  0  0  0  0  0  0  0  0  0  0  0
   -7.9241  -19.8534   20.8279 C   0  0  0  0  0  0  0  0  0  0  0  0
   -6.7495  -19.0754   20.1830 C   0  0  0  0  0  0  0  0  0  0  0  0
   -5.4234  -19.1885   20.5798 C   0  0  0  0  0  0  0  0  0  0  0  0
   -4.6579  -18.4658   19.6927 N   0  0  0  0  0  0  0  0  0  0  0  0
   -3.2850  -18.2902   19.6398 C   0  0  0  0  0  0  0  0  0  0  0  0
   -2.7432  -17.6356   18.6152 C   0  0  0  0  0  0  0  0  0  0  0  0
   -3.6961  -17.1897   17.5702 C   0  0  0  0  0  0  0  0  0  0  0  0
   -4.9936  -17.2798   17.6322 N   0  0  0  0  0  0  0  0  0  0  0  0
   -5.5144  -17.9399   18.7291 C   0  0  0  0  0  0  0  0  0  0  0  0
   -6.7767  -18.2156   19.0684 N   0  0  0  0  0  0  0  0  0  0  0  0
   -9.2463  -19.3816   20.9998 C   0  0  0  0  0  0  0  0  0  0  0  0
  -10.3089  -20.1250   21.7274 C   0  0  0  0  0  0  0  0  0  0  0  0
  -11.8958  -23.5550   25.2923 C   0  0  0  0  0  0  0  0  0  0  0  0
  -12.4582  -24.8334   25.6578 C   0  0  0  0  0  0  0  0  0  0  0  0
  -12.9050  -24.9212   26.9181 N   0  0  0  0  0  0  0  0  0  0  0  0
  -12.4586  -23.7893   27.4655 N   0  0  0  0  0  0  0  0  0  0  0  0
  -11.9048  -22.9425   26.5483 C   0  0  0  0  0  0  0  0  0  0  0  0
  -11.8674  -21.5166   23.6107 H   0  0  0  0  0  0  0  0  0  0  0  0
   -8.5079  -22.8396   22.5042 H   0  0  0  0  0  0  0  0  0  0  0  0
   -6.7943  -21.6461   21.2782 H   0  0  0  0  0  0  0  0  0  0  0  0
   -4.9764  -19.7663   21.3731 H   0  0  0  0  0  0  0  0  0  0  0  0
   -2.6910  -18.7295   20.4234 H   0  0  0  0  0  0  0  0  0  0  0  0
   -1.6914  -17.5092   18.5381 H   0  0  0  0  0  0  0  0  0  0  0  0
   -3.2436  -16.7197   16.6816 H   0  0  0  0  0  0  0  0  0  0  0  0
   -9.4966  -18.3962   20.6053 H   0  0  0  0  0  0  0  0  0  0  0  0
  -11.2704  -19.6283   21.8410 H   0  0  0  0  0  0  0  0  0  0  0  0
  -12.4965  -25.7406   25.0672 H   0  0  0  0  0  0  0  0  0  0  0  0
  -12.5624  -23.6524   28.4674 H   0  0  0  0  0  0  0  0  0  0  0  0
  -11.4856  -22.0154   26.9100 H   0  0  0  0  0  0  0  0  0  0  0  0
  1  2  2  0
  2  3  1  0
  3  4  1  0
  4  5  2  0
  5  6  1  0
  6  7  2  0
  7  8  1  0
  8  9  2  0
  9 10  1  0
 10 11  1  0
 11 12  2  0
 12 13  1  0
 13 14  2  0
 14 15  1  0
 15 16  2  0
  7 17  1  0
 17 18  2  0
  2 19  1  0
 19 20  1  0
 20 21  2  0
 21 22  1  0
 22 23  1  0
 18  4  1  0
 23 19  2  0
 16  8  1  0
 15 10  1  0
  3 24  1  0
  5 25  1  0
  6 26  1  0
  9 27  1  0
 11 28  1  0
 12 29  1  0
 13 30  1  0
 17 31  1  0
 18 32  1  0
 20 33  1  0
 22 34  1  0
 23 35  1  0
M  END
>  <Energy>  (1091) 
90.615236825811024

>  <compound_id>  (1091) 
25659

>  <target_id>  (1091) 
1

>  <reference_id>  (1091) 
106

>  <inspiration_ids>  (1091) 
[106, 123]

>  <energy_score>  (1091) 
12.400152082159252

>  <distance_score>  (1091) 
18.60922627280442

>  <path>  (1091) 
/opt/xchem-fragalysis-2/maxwin/BulkDock/SCRATCH/511017/C25659-P106/C25659-P106.minimised.mol

>  <scratch_subdir>  (1091) 
/opt/xchem-fragalysis-2/maxwin/BulkDock/SCRATCH/511017/C25659-P106

>  <fragmenstein_runtime>  (1091) 
24.503081560134888

>  <fragmenstein_outcome>  (1091) 
too moved

>  <fragmenstein_mode>  (1091) 
expansion

>  <fragmenstein_error>  (1091) 


$$$$
C25659-P123
     RDKit          3D

 35 38  0  0  0  0  0  0  0  0999 V2000
   -4.2880  -12.7747   14.7224 O   0  0  0  0  0  0  0  0  0  0  0  0
   -3.6347  -13.7730   14.8347 C   0  0  0  0  0  0  0  0  0  0  0  0
   -2.2455  -14.0416   14.4879 N   0  0  0  0  0  0  0  0  0  0  0  0
   -1.2155  -13.1764   13.9986 C   0  0  0  0  0  0  0  0  0  0  0  0
    0.1080  -13.6454   14.0017 C   0  0  0  0  0  0  0  0  0  0  0  0
    1.2285  -12.7798   13.7238 C   0  0  0  0  0  0  0  0  0  0  0  0
    1.0811  -11.4014   13.4602 C   0  0  0  0  0  0  0  0  0  0  0  0
    2.2182  -10.4011   13.5923 C   0  0  0  0  0  0  0  0  0  0  0  0
    3.5510  -10.6660   13.8840 C   0  0  0  0  0  0  0  0  0  0  0  0
    4.1043   -9.4743   14.3255 N   0  0  0  0  0  0  0  0  0  0  0  0
    5.3406   -9.2163   14.9192 C   0  0  0  0  0  0  0  0  0  0  0  0
    5.5896   -7.9957   15.4143 C   0  0  0  0  0  0  0  0  0  0  0  0
    4.4937   -7.0060   15.2318 C   0  0  0  0  0  0  0  0  0  0  0  0
    3.3670   -7.2076   14.6195 N   0  0  0  0  0  0  0  0  0  0  0  0
    3.1316   -8.4878   14.1845 C   0  0  0  0  0  0  0  0  0  0  0  0
    2.0174   -9.0249   13.7060 N   0  0  0  0  0  0  0  0  0  0  0  0
   -0.2627  -10.9768   13.3369 C   0  0  0  0  0  0  0  0  0  0  0  0
   -1.3881  -11.8437   13.6024 C   0  0  0  0  0  0  0  0  0  0  0  0
   -4.3257  -14.9317   15.5448 C   0  0  0  0  0  0  0  0  0  0  0  0
   -5.6206  -14.8875   16.1771 C   0  0  0  0  0  0  0  0  0  0  0  0
   -5.9774  -16.0186   16.8030 N   0  0  0  0  0  0  0  0  0  0  0  0
   -4.9351  -16.8286   16.5831 N   0  0  0  0  0  0  0  0  0  0  0  0
   -3.9567  -16.2471   15.8059 C   0  0  0  0  0  0  0  0  0  0  0  0
   -2.0037  -14.9655   14.7955 H   0  0  0  0  0  0  0  0  0  0  0  0
    0.3299  -14.6740   14.2767 H   0  0  0  0  0  0  0  0  0  0  0  0
    2.2229  -13.2125   13.8176 H   0  0  0  0  0  0  0  0  0  0  0  0
    4.1118  -11.5871   13.9381 H   0  0  0  0  0  0  0  0  0  0  0  0
    6.0371  -10.0410   14.9967 H   0  0  0  0  0  0  0  0  0  0  0  0
    6.4937   -7.6993   15.9147 H   0  0  0  0  0  0  0  0  0  0  0  0
    4.6875   -6.0101   15.6624 H   0  0  0  0  0  0  0  0  0  0  0  0
   -0.4666   -9.9227   13.1411 H   0  0  0  0  0  0  0  0  0  0  0  0
   -2.3859  -11.4089   13.5673 H   0  0  0  0  0  0  0  0  0  0  0  0
   -6.2928  -14.0376   16.2073 H   0  0  0  0  0  0  0  0  0  0  0  0
   -4.9631  -17.7707   16.9614 H   0  0  0  0  0  0  0  0  0  0  0  0
   -3.1044  -16.8379   15.5185 H   0  0  0  0  0  0  0  0  0  0  0  0
  1  2  2  0
  2  3  1  0
  3  4  1  0
  4  5  2  0
  5  6  1  0
  6  7  2  0
  7  8  1  0
  8  9  2  0
  9 10  1  0
 10 11  1  0
 11 12  2  0
 12 13  1  0
 13 14  2  0
 14 15  1  0
 15 16  2  0
  7 17  1  0
 17 18  2  0
  2 19  1  0
 19 20  1  0
 20 21  2  0
 21 22  1  0
 22 23  1  0
 18  4  1  0
 23 19  2  0
 16  8  1  0
 15 10  1  0
  3 24  1  0
  5 25  1  0
  6 26  1  0
  9 27  1  0
 11 28  1  0
 12 29  1  0
 13 30  1  0
 17 31  1  0
 18 32  1  0
 20 33  1  0
 22 34  1  0
 23 35  1  0
M  END
>  <Energy>  (1092) 
56.252864883894397

>  <compound_id>  (1092) 
25659

>  <target_id>  (1092) 
1

>  <reference_id>  (1092) 
123

>  <inspiration_ids>  (1092) 
[106, 123]

>  <energy_score>  (1092) 
-21.962219859756374

>  <distance_score>  (1092) 
16.51419740045613

>  <path>  (1092) 
/opt/xchem-fragalysis-2/maxwin/BulkDock/SCRATCH/511017/C25659-P123/C25659-P123.minimised.mol

>  <scratch_subdir>  (1092) 
/opt/xchem-fragalysis-2/maxwin/BulkDock/SCRATCH/511017/C25659-P123

>  <fragmenstein_runtime>  (1092) 
33.3066987991333

>  <fragmenstein_outcome>  (1092) 
too moved

>  <fragmenstein_mode>  (1092) 
expansion

>  <fragmenstein_error>  (1092) 


$$$$
C25660-P106
     RDKit          3D

 35 38  0  0  0  0  0  0  0  0999 V2000
   -1.7796  -25.4298   33.8693 O   0  0  0  0  0  0  0  0  0  0  0  0
   -2.5764  -24.7770   33.2362 C   0  0  0  0  0  0  0  0  0  0  0  0
   -2.3457  -23.5156   32.2724 N   0  0  0  0  0  0  0  0  0  0  0  0
   -1.0483  -22.8448   31.8000 C   0  0  0  0  0  0  0  0  0  0  0  0
    0.1173  -23.5490   32.0461 C   0  0  0  0  0  0  0  0  0  0  0  0
    1.3726  -23.0893   31.5745 C   0  0  0  0  0  0  0  0  0  0  0  0
    1.5593  -21.8935   30.8325 C   0  0  0  0  0  0  0  0  0  0  0  0
    0.5030  -21.0356   30.5079 C   0  0  0  0  0  0  0  0  0  0  0  0
    1.0028  -19.7126   29.6925 C   0  0  0  0  0  0  0  0  0  0  0  0
    1.1748  -18.4162   30.1906 C   0  0  0  0  0  0  0  0  0  0  0  0
    2.0805  -17.7288   29.3613 N   0  0  0  0  0  0  0  0  0  0  0  0
    2.7055  -16.4769   29.5116 C   0  0  0  0  0  0  0  0  0  0  0  0
    3.6527  -16.0727   28.6465 C   0  0  0  0  0  0  0  0  0  0  0  0
    3.9280  -17.0374   27.5469 C   0  0  0  0  0  0  0  0  0  0  0  0
    3.3329  -18.1807   27.3610 N   0  0  0  0  0  0  0  0  0  0  0  0
    2.4065  -18.5790   28.3100 C   0  0  0  0  0  0  0  0  0  0  0  0
    1.7867  -19.7517   28.4939 N   0  0  0  0  0  0  0  0  0  0  0  0
   -0.8318  -21.5520   31.0055 C   0  0  0  0  0  0  0  0  0  0  0  0
   -4.1684  -25.4567   33.3574 C   0  0  0  0  0  0  0  0  0  0  0  0
   -5.5898  -24.8644   32.3563 C   0  0  0  0  0  0  0  0  0  0  0  0
   -6.8428  -25.4720   32.5755 N   0  0  0  0  0  0  0  0  0  0  0  0
   -6.3256  -26.7554   33.4196 N   0  0  0  0  0  0  0  0  0  0  0  0
   -4.7046  -26.6750   33.8424 C   0  0  0  0  0  0  0  0  0  0  0  0
   -3.2371  -23.1576   31.9659 H   0  0  0  0  0  0  0  0  0  0  0  0
    0.1031  -24.4906   32.5899 H   0  0  0  0  0  0  0  0  0  0  0  0
    2.2519  -23.6994   31.7874 H   0  0  0  0  0  0  0  0  0  0  0  0
    2.5709  -21.6453   30.5095 H   0  0  0  0  0  0  0  0  0  0  0  0
    0.8509  -17.9672   31.1177 H   0  0  0  0  0  0  0  0  0  0  0  0
    2.4064  -15.8937   30.3732 H   0  0  0  0  0  0  0  0  0  0  0  0
    4.1929  -15.1396   28.7016 H   0  0  0  0  0  0  0  0  0  0  0  0
    4.6957  -16.7162   26.8232 H   0  0  0  0  0  0  0  0  0  0  0  0
   -1.7126  -20.9548   30.7702 H   0  0  0  0  0  0  0  0  0  0  0  0
   -5.4474  -24.0185   31.7148 H   0  0  0  0  0  0  0  0  0  0  0  0
   -6.6151  -27.5461   32.8673 H   0  0  0  0  0  0  0  0  0  0  0  0
   -4.3461  -27.5722   34.3218 H   0  0  0  0  0  0  0  0  0  0  0  0
  1  2  2  0
  2  3  1  0
  3  4  1  0
  4  5  2  0
  5  6  1  0
  6  7  2  0
  7  8  1  0
  8  9  1  0
  9 10  2  0
 10 11  1  0
 11 12  1  0
 12 13  2  0
 13 14  1  0
 14 15  2  0
 15 16  1  0
 16 17  2  0
  8 18  2  0
  2 19  1  0
 19 20  1  0
 20 21  2  0
 21 22  1  0
 22 23  1  0
 18  4  1  0
 23 19  2  0
 17  9  1  0
 16 11  1  0
  3 24  1  0
  5 25  1  0
  6 26  1  0
  7 27  1  0
 10 28  1  0
 12 29  1  0
 13 30  1  0
 14 31  1  0
 18 32  1  0
 20 33  1  0
 22 34  1  0
 23 35  1  0
M  END
>  <Energy>  (1093) 
222.80962628487342

>  <compound_id>  (1093) 
25660

>  <target_id>  (1093) 
1

>  <reference_id>  (1093) 
106

>  <inspiration_ids>  (1093) 
[106, 123]

>  <energy_score>  (1093) 
139.3669486800993

>  <distance_score>  (1093) 
18.111590448965394

>  <path>  (1093) 
/opt/xchem-fragalysis-2/maxwin/BulkDock/SCRATCH/511017/C25660-P106/C25660-P106.minimised.mol

>  <scratch_subdir>  (1093) 
/opt/xchem-fragalysis-2/maxwin/BulkDock/SCRATCH/511017/C25660-P106

>  <fragmenstein_runtime>  (1093) 
33.48682165145874

>  <fragmenstein_outcome>  (1093) 
too moved

>  <fragmenstein_mode>  (1093) 
expansion

>  <fragmenstein_error>  (1093) 


$$$$
C25660-P123
     RDKit          3D

 35 38  0  0  0  0  0  0  0  0999 V2000
   -2.3310  -14.7466   28.4516 O   0  0  0  0  0  0  0  0  0  0  0  0
   -2.6163  -15.1526   27.3664 C   0  0  0  0  0  0  0  0  0  0  0  0
   -2.1375  -14.7090   25.9773 N   0  0  0  0  0  0  0  0  0  0  0  0
   -0.8896  -13.5100   25.4806 C   0  0  0  0  0  0  0  0  0  0  0  0
   -0.8074  -14.2587   24.1505 C   0  0  0  0  0  0  0  0  0  0  0  0
   -0.1552  -13.5643   23.0362 C   0  0  0  0  0  0  0  0  0  0  0  0
    0.8222  -11.9006   23.0169 C   0  0  0  0  0  0  0  0  0  0  0  0
    1.9489  -12.3657   24.0839 C   0  0  0  0  0  0  0  0  0  0  0  0
    3.3956  -12.2356   22.8508 C   0  0  0  0  0  0  0  0  0  0  0  0
    3.7590  -12.8253   21.4931 C   0  0  0  0  0  0  0  0  0  0  0  0
    5.0451  -12.3189   20.7636 N   0  0  0  0  0  0  0  0  0  0  0  0
    5.7966  -12.7237   19.6477 C   0  0  0  0  0  0  0  0  0  0  0  0
    6.9229  -12.0632   19.3153 C   0  0  0  0  0  0  0  0  0  0  0  0
    7.3452  -10.9671   20.2310 C   0  0  0  0  0  0  0  0  0  0  0  0
    6.7047  -10.5650   21.2854 N   0  0  0  0  0  0  0  0  0  0  0  0
    5.4869  -11.1784   21.4994 C   0  0  0  0  0  0  0  0  0  0  0  0
    4.5079  -11.0345   22.5124 N   0  0  0  0  0  0  0  0  0  0  0  0
    1.0602  -13.2192   25.5910 C   0  0  0  0  0  0  0  0  0  0  0  0
   -3.5081  -16.3508   27.4108 C   0  0  0  0  0  0  0  0  0  0  0  0
   -4.8028  -16.4442   28.0112 C   0  0  0  0  0  0  0  0  0  0  0  0
   -5.2797  -17.6909   28.0682 N   0  0  0  0  0  0  0  0  0  0  0  0
   -4.2495  -18.4349   27.6490 N   0  0  0  0  0  0  0  0  0  0  0  0
   -3.1812  -17.6854   27.2176 C   0  0  0  0  0  0  0  0  0  0  0  0
   -2.5208  -15.3294   25.2753 H   0  0  0  0  0  0  0  0  0  0  0  0
   -1.4289  -15.1064   23.9010 H   0  0  0  0  0  0  0  0  0  0  0  0
    0.6873  -14.3066   23.3391 H   0  0  0  0  0  0  0  0  0  0  0  0
    0.6850  -11.1543   22.2564 H   0  0  0  0  0  0  0  0  0  0  0  0
    3.3023  -13.6232   20.9788 H   0  0  0  0  0  0  0  0  0  0  0  0
    5.4105  -13.5402   19.0572 H   0  0  0  0  0  0  0  0  0  0  0  0
    7.5301  -12.3013   18.4541 H   0  0  0  0  0  0  0  0  0  0  0  0
    8.3091  -10.4944   19.9794 H   0  0  0  0  0  0  0  0  0  0  0  0
    1.6114  -13.6720   26.3867 H   0  0  0  0  0  0  0  0  0  0  0  0
   -5.4029  -15.6380   28.4159 H   0  0  0  0  0  0  0  0  0  0  0  0
   -4.3367  -19.4453   27.6985 H   0  0  0  0  0  0  0  0  0  0  0  0
   -2.2674  -18.1666   26.9020 H   0  0  0  0  0  0  0  0  0  0  0  0
  1  2  2  0
  2  3  1  0
  3  4  1  0
  4  5  2  0
  5  6  1  0
  6  7  2  0
  7  8  1  0
  8  9  1  0
  9 10  2  0
 10 11  1  0
 11 12  1  0
 12 13  2  0
 13 14  1  0
 14 15  2  0
 15 16  1  0
 16 17  2  0
  8 18  2  0
  2 19  1  0
 19 20  1  0
 20 21  2  0
 21 22  1  0
 22 23  1  0
 18  4  1  0
 23 19  2  0
 17  9  1  0
 16 11  1  0
  3 24  1  0
  5 25  1  0
  6 26  1  0
  7 27  1  0
 10 28  1  0
 12 29  1  0
 13 30  1  0
 14 31  1  0
 18 32  1  0
 20 33  1  0
 22 34  1  0
 23 35  1  0
M  END
>  <Energy>  (1094) 
791.72407844937368

>  <compound_id>  (1094) 
25660

>  <target_id>  (1094) 
1

>  <reference_id>  (1094) 
123

>  <inspiration_ids>  (1094) 
[106, 123]

>  <energy_score>  (1094) 
708.2814008446016

>  <distance_score>  (1094) 
13.620094887426571

>  <path>  (1094) 
/opt/xchem-fragalysis-2/maxwin/BulkDock/SCRATCH/511017/C25660-P123/C25660-P123.minimised.mol

>  <scratch_subdir>  (1094) 
/opt/xchem-fragalysis-2/maxwin/BulkDock/SCRATCH/511017/C25660-P123

>  <fragmenstein_runtime>  (1094) 
23.708828926086426

>  <fragmenstein_outcome>  (1094) 
too moved

>  <fragmenstein_mode>  (1094) 
expansion

>  <fragmenstein_error>  (1094) 


$$$$
C25668-P106
     RDKit          3D

 41 43  0  0  0  0  0  0  0  0999 V2000
    0.1758  -22.3165   19.5697 C   0  0  0  0  0  0  0  0  0  0  0  0
   -0.7932  -21.2480   19.0777 C   0  0  0  0  0  0  0  0  0  0  0  0
   -1.5068  -20.4460   20.1574 C   0  0  0  0  0  0  0  0  0  0  0  0
   -0.6011  -19.6390   21.1487 C   0  0  0  0  0  0  0  0  0  0  0  0
    0.1543  -18.4049   20.9610 N   0  0  0  0  0  0  0  0  0  0  0  0
   -0.2275  -17.0925   20.3210 C   0  0  0  0  0  0  0  0  0  0  0  0
   -1.2860  -16.7220   19.8794 O   0  0  0  0  0  0  0  0  0  0  0  0
    1.0896  -15.8983   20.0266 C   0  0  0  0  0  0  0  0  0  0  0  0
    2.2692  -14.8165   20.3094 C   0  0  0  0  0  0  0  0  0  0  0  0
    3.2678  -14.1013   19.0450 N   0  0  0  0  0  0  0  0  0  0  0  0
    4.4495  -13.1525   19.2241 C   0  0  0  0  0  0  0  0  0  0  0  0
    5.5782  -13.2226   18.5240 C   0  0  0  0  0  0  0  0  0  0  0  0
    5.5645  -14.5279   17.8907 C   0  0  0  0  0  0  0  0  0  0  0  0
    4.5313  -15.3088   17.7092 N   0  0  0  0  0  0  0  0  0  0  0  0
    3.2409  -15.0102   18.1662 C   0  0  0  0  0  0  0  0  0  0  0  0
    1.9893  -15.4474   18.4273 N   0  0  0  0  0  0  0  0  0  0  0  0
   -2.3521  -21.3917   20.9536 N   0  0  0  0  0  0  0  0  0  0  0  0
   -3.6417  -21.9604   20.6806 C   0  0  0  0  0  0  0  0  0  0  0  0
   -4.3357  -21.8866   19.7120 O   0  0  0  0  0  0  0  0  0  0  0  0
   -4.2144  -22.6717   21.8607 C   0  0  0  0  0  0  0  0  0  0  0  0
   -5.5326  -23.2139   21.9464 C   0  0  0  0  0  0  0  0  0  0  0  0
   -5.7947  -23.7957   23.1186 N   0  0  0  0  0  0  0  0  0  0  0  0
   -4.6730  -23.6088   23.8186 N   0  0  0  0  0  0  0  0  0  0  0  0
   -3.6978  -22.9480   23.1200 C   0  0  0  0  0  0  0  0  0  0  0  0
    0.5572  -22.8897   18.7179 H   0  0  0  0  0  0  0  0  0  0  0  0
    1.0399  -21.8768   20.0753 H   0  0  0  0  0  0  0  0  0  0  0  0
   -0.3090  -23.0198   20.2531 H   0  0  0  0  0  0  0  0  0  0  0  0
   -0.2408  -20.5553   18.4306 H   0  0  0  0  0  0  0  0  0  0  0  0
   -1.5397  -21.7372   18.4387 H   0  0  0  0  0  0  0  0  0  0  0  0
   -2.1906  -19.7661   19.6342 H   0  0  0  0  0  0  0  0  0  0  0  0
    0.2175  -20.3388   21.3694 H   0  0  0  0  0  0  0  0  0  0  0  0
   -1.0270  -19.5799   22.1520 H   0  0  0  0  0  0  0  0  0  0  0  0
    1.0866  -18.3495   21.2908 H   0  0  0  0  0  0  0  0  0  0  0  0
    2.7636  -14.3613   21.1416 H   0  0  0  0  0  0  0  0  0  0  0  0
    4.4540  -12.6170   20.1569 H   0  0  0  0  0  0  0  0  0  0  0  0
    6.4769  -12.6641   18.7174 H   0  0  0  0  0  0  0  0  0  0  0  0
    6.5414  -14.8788   17.5184 H   0  0  0  0  0  0  0  0  0  0  0  0
   -2.0993  -21.5942   21.9082 H   0  0  0  0  0  0  0  0  0  0  0  0
   -6.2998  -23.2026   21.1796 H   0  0  0  0  0  0  0  0  0  0  0  0
   -4.6451  -23.9563   24.7700 H   0  0  0  0  0  0  0  0  0  0  0  0
   -2.7446  -22.7497   23.5850 H   0  0  0  0  0  0  0  0  0  0  0  0
  1  2  1  0
  2  3  1  0
  3  4  1  0
  4  5  1  0
  5  6  1  0
  6  7  2  0
  6  8  1  0
  8  9  2  0
  9 10  1  0
 10 11  1  0
 11 12  2  0
 12 13  1  0
 13 14  2  0
 14 15  1  0
 15 16  2  0
  3 17  1  0
 17 18  1  0
 18 19  2  0
 18 20  1  0
 20 21  1  0
 21 22  2  0
 22 23  1  0
 23 24  1  0
 16  8  1  0
 24 20  2  0
 15 10  1  0
  1 25  1  0
  1 26  1  0
  1 27  1  0
  2 28  1  0
  2 29  1  0
  3 30  1  0
  4 31  1  0
  4 32  1  0
  5 33  1  0
  9 34  1  0
 11 35  1  0
 12 36  1  0
 13 37  1  0
 17 38  1  0
 21 39  1  0
 23 40  1  0
 24 41  1  0
M  END
>  <Energy>  (1095) 
381.6752602963353

>  <compound_id>  (1095) 
25668

>  <target_id>  (1095) 
1

>  <reference_id>  (1095) 
106

>  <inspiration_ids>  (1095) 
[106, 123]

>  <energy_score>  (1095) 
290.62871775335213

>  <distance_score>  (1095) 
15.061503628365053

>  <path>  (1095) 
/opt/xchem-fragalysis-2/maxwin/BulkDock/SCRATCH/511017/C25668-P106/C25668-P106.minimised.mol

>  <scratch_subdir>  (1095) 
/opt/xchem-fragalysis-2/maxwin/BulkDock/SCRATCH/511017/C25668-P106

>  <fragmenstein_runtime>  (1095) 
32.81280970573425

>  <fragmenstein_outcome>  (1095) 
too moved

>  <fragmenstein_mode>  (1095) 
expansion

>  <fragmenstein_error>  (1095) 


$$$$
C25668-P123
     RDKit          3D

 41 43  0  0  0  0  0  0  0  0999 V2000
   -4.0463  -17.5967   12.4266 C   0  0  0  0  0  0  0  0  0  0  0  0
   -3.1160  -16.7431   13.2846 C   0  0  0  0  0  0  0  0  0  0  0  0
   -3.8568  -15.6662   14.0657 C   0  0  0  0  0  0  0  0  0  0  0  0
   -3.0782  -14.3076   14.3754 C   0  0  0  0  0  0  0  0  0  0  0  0
   -1.9187  -13.5846   13.7021 N   0  0  0  0  0  0  0  0  0  0  0  0
   -1.9044  -12.4997   12.7132 C   0  0  0  0  0  0  0  0  0  0  0  0
   -2.8050  -11.9692   12.1267 O   0  0  0  0  0  0  0  0  0  0  0  0
   -0.4725  -11.8484   12.4601 C   0  0  0  0  0  0  0  0  0  0  0  0
    0.8277  -12.3483   12.5021 C   0  0  0  0  0  0  0  0  0  0  0  0
    1.7124  -11.2705   12.3990 N   0  0  0  0  0  0  0  0  0  0  0  0
    3.1120  -11.2132   12.4991 C   0  0  0  0  0  0  0  0  0  0  0  0
    3.7424  -10.0255   12.5086 C   0  0  0  0  0  0  0  0  0  0  0  0
    2.8468   -8.8433   12.3733 C   0  0  0  0  0  0  0  0  0  0  0  0
    1.5530   -8.8722   12.2484 N   0  0  0  0  0  0  0  0  0  0  0  0
    0.9501  -10.1124   12.2739 C   0  0  0  0  0  0  0  0  0  0  0  0
   -0.3358  -10.4358   12.2897 N   0  0  0  0  0  0  0  0  0  0  0  0
   -4.3829  -16.3744   15.3025 N   0  0  0  0  0  0  0  0  0  0  0  0
   -5.6790  -16.9639   15.5822 C   0  0  0  0  0  0  0  0  0  0  0  0
   -6.6868  -16.9699   14.9376 O   0  0  0  0  0  0  0  0  0  0  0  0
   -5.7710  -17.7553   16.8738 C   0  0  0  0  0  0  0  0  0  0  0  0
   -6.9910  -18.2875   17.4369 C   0  0  0  0  0  0  0  0  0  0  0  0
   -6.8382  -18.9053   18.6145 N   0  0  0  0  0  0  0  0  0  0  0  0
   -5.5192  -18.8340   18.8222 N   0  0  0  0  0  0  0  0  0  0  0  0
   -4.8428  -18.1755   17.8173 C   0  0  0  0  0  0  0  0  0  0  0  0
   -4.5992  -16.9789   11.7117 H   0  0  0  0  0  0  0  0  0  0  0  0
   -3.4643  -18.3296   11.8585 H   0  0  0  0  0  0  0  0  0  0  0  0
   -4.7668  -18.1454   13.0399 H   0  0  0  0  0  0  0  0  0  0  0  0
   -2.5805  -17.4217   13.9519 H   0  0  0  0  0  0  0  0  0  0  0  0
   -2.3846  -16.2752   12.6162 H   0  0  0  0  0  0  0  0  0  0  0  0
   -4.7476  -15.3757   13.4937 H   0  0  0  0  0  0  0  0  0  0  0  0
   -3.8656  -13.5430   14.4240 H   0  0  0  0  0  0  0  0  0  0  0  0
   -2.7210  -14.4041   15.4092 H   0  0  0  0  0  0  0  0  0  0  0  0
   -0.9713  -13.7262   14.0553 H   0  0  0  0  0  0  0  0  0  0  0  0
    1.1959  -13.3494   12.6604 H   0  0  0  0  0  0  0  0  0  0  0  0
    3.6289  -12.1570   12.6003 H   0  0  0  0  0  0  0  0  0  0  0  0
    4.8093   -9.8892   12.6033 H   0  0  0  0  0  0  0  0  0  0  0  0
    3.3586   -7.8665   12.3703 H   0  0  0  0  0  0  0  0  0  0  0  0
   -3.7331  -16.6382   16.0368 H   0  0  0  0  0  0  0  0  0  0  0  0
   -7.9849  -18.2086   17.0116 H   0  0  0  0  0  0  0  0  0  0  0  0
   -5.1431  -19.2596   19.6631 H   0  0  0  0  0  0  0  0  0  0  0  0
   -3.7736  -18.0820   17.8793 H   0  0  0  0  0  0  0  0  0  0  0  0
  1  2  1  0
  2  3  1  0
  3  4  1  0
  4  5  1  0
  5  6  1  0
  6  7  2  0
  6  8  1  0
  8  9  2  0
  9 10  1  0
 10 11  1  0
 11 12  2  0
 12 13  1  0
 13 14  2  0
 14 15  1  0
 15 16  2  0
  3 17  1  0
 17 18  1  0
 18 19  2  0
 18 20  1  0
 20 21  1  0
 21 22  2  0
 22 23  1  0
 23 24  1  0
 16  8  1  0
 24 20  2  0
 15 10  1  0
  1 25  1  0
  1 26  1  0
  1 27  1  0
  2 28  1  0
  2 29  1  0
  3 30  1  0
  4 31  1  0
  4 32  1  0
  5 33  1  0
  9 34  1  0
 11 35  1  0
 12 36  1  0
 13 37  1  0
 17 38  1  0
 21 39  1  0
 23 40  1  0
 24 41  1  0
M  END
>  <Energy>  (1096) 
87.776607657937674

>  <compound_id>  (1096) 
25668

>  <target_id>  (1096) 
1

>  <reference_id>  (1096) 
123

>  <inspiration_ids>  (1096) 
[106, 123]

>  <energy_score>  (1096) 
-3.2699348850414935

>  <distance_score>  (1096) 
16.41881450521316

>  <path>  (1096) 
/opt/xchem-fragalysis-2/maxwin/BulkDock/SCRATCH/511017/C25668-P123/C25668-P123.minimised.mol

>  <scratch_subdir>  (1096) 
/opt/xchem-fragalysis-2/maxwin/BulkDock/SCRATCH/511017/C25668-P123

>  <fragmenstein_runtime>  (1096) 
35.23597049713135

>  <fragmenstein_outcome>  (1096) 
too moved

>  <fragmenstein_mode>  (1096) 
expansion

>  <fragmenstein_error>  (1096) 


$$$$
C25670-P106
     RDKit          3D

 40 42  0  0  0  0  0  0  0  0999 V2000
    3.0405  -14.3872   23.2680 C   0  0  0  0  0  0  0  0  0  0  0  0
    3.1622  -12.9609   23.5323 C   0  0  0  0  0  0  0  0  0  0  0  0
    2.2991  -11.8218   23.7995 C   0  0  0  0  0  0  0  0  0  0  0  0
    1.5087  -12.0656   25.5521 N   0  0  0  0  0  0  0  0  0  0  0  0
    0.6447  -13.3303   26.1850 C   0  0  0  0  0  0  0  0  0  0  0  0
    0.2438  -14.3586   25.6538 O   0  0  0  0  0  0  0  0  0  0  0  0
    0.1795  -13.1363   27.6536 C   0  0  0  0  0  0  0  0  0  0  0  0
   -0.2406  -14.4993   28.3782 C   0  0  0  0  0  0  0  0  0  0  0  0
   -1.6660  -15.0459   28.4561 C   0  0  0  0  0  0  0  0  0  0  0  0
   -2.5821  -15.3950   27.4297 C   0  0  0  0  0  0  0  0  0  0  0  0
   -3.6941  -15.9953   27.8794 N   0  0  0  0  0  0  0  0  0  0  0  0
   -3.4873  -16.0917   29.2014 N   0  0  0  0  0  0  0  0  0  0  0  0
   -2.3068  -15.5244   29.5940 C   0  0  0  0  0  0  0  0  0  0  0  0
    3.4418  -10.2362   23.0989 C   0  0  0  0  0  0  0  0  0  0  0  0
    3.2309   -8.4310   22.9849 C   0  0  0  0  0  0  0  0  0  0  0  0
    4.6411   -7.6228   23.9135 N   0  0  0  0  0  0  0  0  0  0  0  0
    4.6215   -6.5973   24.9418 C   0  0  0  0  0  0  0  0  0  0  0  0
    5.6831   -6.2948   25.7032 C   0  0  0  0  0  0  0  0  0  0  0  0
    6.7517   -7.3114   25.7149 C   0  0  0  0  0  0  0  0  0  0  0  0
    6.5987   -8.5420   25.3484 N   0  0  0  0  0  0  0  0  0  0  0  0
    5.4442   -8.7952   24.6168 C   0  0  0  0  0  0  0  0  0  0  0  0
    5.0902  -10.0500   23.6350 N   0  0  0  0  0  0  0  0  0  0  0  0
    3.8030  -15.0201   23.7332 H   0  0  0  0  0  0  0  0  0  0  0  0
    3.1963  -14.4946   22.2121 H   0  0  0  0  0  0  0  0  0  0  0  0
    2.0280  -14.6737   23.4136 H   0  0  0  0  0  0  0  0  0  0  0  0
    3.6071  -12.5284   22.6400 H   0  0  0  0  0  0  0  0  0  0  0  0
    3.7014  -13.1226   24.4178 H   0  0  0  0  0  0  0  0  0  0  0  0
    1.4466  -11.7415   23.1397 H   0  0  0  0  0  0  0  0  0  0  0  0
    1.7433  -11.4222   26.2788 H   0  0  0  0  0  0  0  0  0  0  0  0
    1.0203  -12.6994   28.2024 H   0  0  0  0  0  0  0  0  0  0  0  0
   -0.6576  -12.4319   27.6629 H   0  0  0  0  0  0  0  0  0  0  0  0
    0.3910  -15.3102   27.9932 H   0  0  0  0  0  0  0  0  0  0  0  0
    0.0751  -14.3635   29.4234 H   0  0  0  0  0  0  0  0  0  0  0  0
   -2.4592  -15.2509   26.3632 H   0  0  0  0  0  0  0  0  0  0  0  0
   -4.1863  -16.5561   29.7731 H   0  0  0  0  0  0  0  0  0  0  0  0
   -2.0019  -15.5504   30.6305 H   0  0  0  0  0  0  0  0  0  0  0  0
    2.3331   -8.0458   23.5053 H   0  0  0  0  0  0  0  0  0  0  0  0
    3.6612   -6.1753   25.1922 H   0  0  0  0  0  0  0  0  0  0  0  0
    5.6708   -5.5556   26.4917 H   0  0  0  0  0  0  0  0  0  0  0  0
    7.6876   -7.0101   26.2133 H   0  0  0  0  0  0  0  0  0  0  0  0
  1  2  1  0
  2  3  1  0
  3  4  1  0
  4  5  1  0
  5  6  2  0
  5  7  1  0
  7  8  1  0
  8  9  1  0
  9 10  1  0
 10 11  2  0
 11 12  1  0
 12 13  1  0
  3 14  1  0
 14 15  2  0
 15 16  1  0
 16 17  1  0
 17 18  2  0
 18 19  1  0
 19 20  2  0
 20 21  1  0
 21 22  2  0
 13  9  2  0
 22 14  1  0
 21 16  1  0
  1 23  1  0
  1 24  1  0
  1 25  1  0
  2 26  1  0
  2 27  1  0
  3 28  1  0
  4 29  1  0
  7 30  1  0
  7 31  1  0
  8 32  1  0
  8 33  1  0
 10 34  1  0
 12 35  1  0
 13 36  1  0
 15 37  1  0
 17 38  1  0
 18 39  1  0
 19 40  1  0
M  END
>  <Energy>  (1097) 
491.83439867544683

>  <compound_id>  (1097) 
25670

>  <target_id>  (1097) 
1

>  <reference_id>  (1097) 
106

>  <inspiration_ids>  (1097) 
[106, 123]

>  <energy_score>  (1097) 
437.4067429242411

>  <distance_score>  (1097) 
14.263067670266484

>  <path>  (1097) 
/opt/xchem-fragalysis-2/maxwin/BulkDock/SCRATCH/511017/C25670-P106/C25670-P106.minimised.mol

>  <scratch_subdir>  (1097) 
/opt/xchem-fragalysis-2/maxwin/BulkDock/SCRATCH/511017/C25670-P106

>  <fragmenstein_runtime>  (1097) 
23.963430643081665

>  <fragmenstein_outcome>  (1097) 
too moved

>  <fragmenstein_mode>  (1097) 
expansion

>  <fragmenstein_error>  (1097) 


$$$$
C25670-P123
     RDKit          3D

 40 42  0  0  0  0  0  0  0  0999 V2000
   -1.9466   -5.7059   23.1930 C   0  0  0  0  0  0  0  0  0  0  0  0
   -1.2891   -6.9797   22.6699 C   0  0  0  0  0  0  0  0  0  0  0  0
   -1.5798   -7.2251   21.1564 C   0  0  0  0  0  0  0  0  0  0  0  0
   -2.3081   -8.5439   21.0206 N   0  0  0  0  0  0  0  0  0  0  0  0
   -3.4022   -9.1377   21.8352 C   0  0  0  0  0  0  0  0  0  0  0  0
   -3.9211   -8.7493   22.8500 O   0  0  0  0  0  0  0  0  0  0  0  0
   -4.0288  -10.4996   21.2931 C   0  0  0  0  0  0  0  0  0  0  0  0
   -5.3745  -11.0353   22.0500 C   0  0  0  0  0  0  0  0  0  0  0  0
   -5.4743  -12.2734   22.9664 C   0  0  0  0  0  0  0  0  0  0  0  0
   -5.4402  -12.3361   24.3948 C   0  0  0  0  0  0  0  0  0  0  0  0
   -5.6874  -13.5558   24.8911 N   0  0  0  0  0  0  0  0  0  0  0  0
   -5.9412  -14.2927   23.8011 N   0  0  0  0  0  0  0  0  0  0  0  0
   -5.8278  -13.5772   22.6362 C   0  0  0  0  0  0  0  0  0  0  0  0
   -0.3367   -6.7295   20.2893 C   0  0  0  0  0  0  0  0  0  0  0  0
    0.4300   -5.6087   20.6210 C   0  0  0  0  0  0  0  0  0  0  0  0
    1.3052   -5.3648   19.5999 N   0  0  0  0  0  0  0  0  0  0  0  0
    2.1989   -4.3120   19.4355 C   0  0  0  0  0  0  0  0  0  0  0  0
    2.9075   -4.2259   18.3058 C   0  0  0  0  0  0  0  0  0  0  0  0
    2.7108   -5.3638   17.3683 C   0  0  0  0  0  0  0  0  0  0  0  0
    1.8742   -6.3530   17.5055 N   0  0  0  0  0  0  0  0  0  0  0  0
    1.1000   -6.3525   18.6447 C   0  0  0  0  0  0  0  0  0  0  0  0
    0.0985   -7.1555   19.0290 N   0  0  0  0  0  0  0  0  0  0  0  0
   -3.0363   -5.7702   23.1088 H   0  0  0  0  0  0  0  0  0  0  0  0
   -1.6993   -5.5624   24.2498 H   0  0  0  0  0  0  0  0  0  0  0  0
   -1.6148   -4.8202   22.6452 H   0  0  0  0  0  0  0  0  0  0  0  0
   -1.6642   -7.7989   23.2846 H   0  0  0  0  0  0  0  0  0  0  0  0
   -0.2126   -6.9454   22.8720 H   0  0  0  0  0  0  0  0  0  0  0  0
   -2.3693   -6.5205   20.8553 H   0  0  0  0  0  0  0  0  0  0  0  0
   -2.0642   -9.1857   20.2698 H   0  0  0  0  0  0  0  0  0  0  0  0
   -3.2559  -11.2603   21.2202 H   0  0  0  0  0  0  0  0  0  0  0  0
   -4.3347  -10.2651   20.2642 H   0  0  0  0  0  0  0  0  0  0  0  0
   -5.8190  -10.1967   22.6003 H   0  0  0  0  0  0  0  0  0  0  0  0
   -6.0838  -11.2399   21.2336 H   0  0  0  0  0  0  0  0  0  0  0  0
   -5.2519  -11.5227   25.0856 H   0  0  0  0  0  0  0  0  0  0  0  0
   -6.1926  -15.2691   23.9198 H   0  0  0  0  0  0  0  0  0  0  0  0
   -6.0406  -14.0439   21.6847 H   0  0  0  0  0  0  0  0  0  0  0  0
    0.3974   -4.9517   21.4771 H   0  0  0  0  0  0  0  0  0  0  0  0
    2.2476   -3.5729   20.2246 H   0  0  0  0  0  0  0  0  0  0  0  0
    3.5544   -3.4016   18.0609 H   0  0  0  0  0  0  0  0  0  0  0  0
    3.3466   -5.3373   16.4676 H   0  0  0  0  0  0  0  0  0  0  0  0
  1  2  1  0
  2  3  1  0
  3  4  1  0
  4  5  1  0
  5  6  2  0
  5  7  1  0
  7  8  1  0
  8  9  1  0
  9 10  1  0
 10 11  2  0
 11 12  1  0
 12 13  1  0
  3 14  1  0
 14 15  2  0
 15 16  1  0
 16 17  1  0
 17 18  2  0
 18 19  1  0
 19 20  2  0
 20 21  1  0
 21 22  2  0
 13  9  2  0
 22 14  1  0
 21 16  1  0
  1 23  1  0
  1 24  1  0
  1 25  1  0
  2 26  1  0
  2 27  1  0
  3 28  1  0
  4 29  1  0
  7 30  1  0
  7 31  1  0
  8 32  1  0
  8 33  1  0
 10 34  1  0
 12 35  1  0
 13 36  1  0
 15 37  1  0
 17 38  1  0
 18 39  1  0
 19 40  1  0
M  END
>  <Energy>  (1098) 
63.668317974712778

>  <compound_id>  (1098) 
25670

>  <target_id>  (1098) 
1

>  <reference_id>  (1098) 
123

>  <inspiration_ids>  (1098) 
[106, 123]

>  <energy_score>  (1098) 
9.240662223510071

>  <distance_score>  (1098) 
14.830634009017876

>  <path>  (1098) 
/opt/xchem-fragalysis-2/maxwin/BulkDock/SCRATCH/511017/C25670-P123/C25670-P123.minimised.mol

>  <scratch_subdir>  (1098) 
/opt/xchem-fragalysis-2/maxwin/BulkDock/SCRATCH/511017/C25670-P123

>  <fragmenstein_runtime>  (1098) 
26.10719108581543

>  <fragmenstein_outcome>  (1098) 
too moved

>  <fragmenstein_mode>  (1098) 
expansion

>  <fragmenstein_error>  (1098) 


$$$$
C25671-P106
     RDKit          3D

 37 39  0  0  0  0  0  0  0  0999 V2000
    0.6403   -8.4438   20.7513 O   0  0  0  0  0  0  0  0  0  0  0  0
    0.4843   -8.4413   19.5569 C   0  0  0  0  0  0  0  0  0  0  0  0
   -0.7764   -8.6058   18.7396 N   0  0  0  0  0  0  0  0  0  0  0  0
   -2.2505   -8.9325   19.1801 C   0  0  0  0  0  0  0  0  0  0  0  0
   -3.0451  -10.3457   19.5696 C   0  0  0  0  0  0  0  0  0  0  0  0
   -4.6726  -10.1700   19.5745 C   0  0  0  0  0  0  0  0  0  0  0  0
   -5.0357   -8.7261   19.9019 C   0  0  0  0  0  0  0  0  0  0  0  0
   -5.5788   -7.9392   19.1409 O   0  0  0  0  0  0  0  0  0  0  0  0
   -4.6613   -8.3256   21.1330 O   0  0  0  0  0  0  0  0  0  0  0  0
   -5.6607  -11.1353   20.3502 C   0  0  0  0  0  0  0  0  0  0  0  0
   -6.2518  -12.3729   19.9428 C   0  0  0  0  0  0  0  0  0  0  0  0
   -7.0226  -12.9646   20.8668 N   0  0  0  0  0  0  0  0  0  0  0  0
   -7.0629  -12.0540   21.8473 N   0  0  0  0  0  0  0  0  0  0  0  0
   -6.3638  -10.9150   21.5366 C   0  0  0  0  0  0  0  0  0  0  0  0
    2.0403   -8.1694   18.6936 C   0  0  0  0  0  0  0  0  0  0  0  0
    3.0507   -8.5068   17.7800 C   0  0  0  0  0  0  0  0  0  0  0  0
    4.4240   -7.4253   17.7938 N   0  0  0  0  0  0  0  0  0  0  0  0
    5.6815   -7.0415   17.0094 C   0  0  0  0  0  0  0  0  0  0  0  0
    5.7124   -5.9463   16.3264 C   0  0  0  0  0  0  0  0  0  0  0  0
    4.8469   -5.1781   17.1128 C   0  0  0  0  0  0  0  0  0  0  0  0
    4.9571   -5.3678   18.4284 N   0  0  0  0  0  0  0  0  0  0  0  0
    4.3267   -6.5501   18.7191 C   0  0  0  0  0  0  0  0  0  0  0  0
    2.7449   -6.7449   19.2223 N   0  0  0  0  0  0  0  0  0  0  0  0
   -0.5356   -8.6347   17.7698 H   0  0  0  0  0  0  0  0  0  0  0  0
   -2.3011   -8.4555   20.1587 H   0  0  0  0  0  0  0  0  0  0  0  0
   -2.8776   -8.3863   18.4734 H   0  0  0  0  0  0  0  0  0  0  0  0
   -2.7688  -11.1117   18.8379 H   0  0  0  0  0  0  0  0  0  0  0  0
   -2.6994  -10.6755   20.5545 H   0  0  0  0  0  0  0  0  0  0  0  0
   -4.9542  -10.2927   18.5168 H   0  0  0  0  0  0  0  0  0  0  0  0
   -4.9689   -7.3970   21.1952 H   0  0  0  0  0  0  0  0  0  0  0  0
   -6.1497  -12.8648   18.9867 H   0  0  0  0  0  0  0  0  0  0  0  0
   -7.5981  -12.2533   22.6854 H   0  0  0  0  0  0  0  0  0  0  0  0
   -6.3449  -10.0912   22.2356 H   0  0  0  0  0  0  0  0  0  0  0  0
    3.2369   -9.4543   17.3128 H   0  0  0  0  0  0  0  0  0  0  0  0
    6.4028   -7.6913   16.4945 H   0  0  0  0  0  0  0  0  0  0  0  0
    6.6128   -5.7656   15.8199 H   0  0  0  0  0  0  0  0  0  0  0  0
    4.4178   -4.2769   16.6218 H   0  0  0  0  0  0  0  0  0  0  0  0
  1  2  2  0
  2  3  1  0
  3  4  1  0
  4  5  1  0
  5  6  1  0
  6  7  1  0
  7  8  2  0
  7  9  1  0
  6 10  1  0
 10 11  1  0
 11 12  2  0
 12 13  1  0
 13 14  1  0
  2 15  1  0
 15 16  2  0
 16 17  1  0
 17 18  1  0
 18 19  2  0
 19 20  1  0
 20 21  2  0
 21 22  1  0
 22 23  2  0
 14 10  2  0
 23 15  1  0
 22 17  1  0
  3 24  1  0
  4 25  1  0
  4 26  1  0
  5 27  1  0
  5 28  1  0
  6 29  1  0
  9 30  1  0
 11 31  1  0
 13 32  1  0
 14 33  1  0
 16 34  1  0
 18 35  1  0
 19 36  1  0
 20 37  1  0
M  END
>  <Energy>  (1099) 
381.05131148279838

>  <compound_id>  (1099) 
25671

>  <target_id>  (1099) 
1

>  <reference_id>  (1099) 
106

>  <inspiration_ids>  (1099) 
[106, 123]

>  <energy_score>  (1099) 
305.17239373997074

>  <distance_score>  (1099) 
15.18496508417303

>  <path>  (1099) 
/opt/xchem-fragalysis-2/maxwin/BulkDock/SCRATCH/511017/C25671-P106/C25671-P106.minimised.mol

>  <scratch_subdir>  (1099) 
/opt/xchem-fragalysis-2/maxwin/BulkDock/SCRATCH/511017/C25671-P106

>  <fragmenstein_runtime>  (1099) 
23.168407440185547

>  <fragmenstein_outcome>  (1099) 
too moved

>  <fragmenstein_mode>  (1099) 
expansion

>  <fragmenstein_error>  (1099) 


$$$$
C25671-P123
     RDKit          3D

 37 39  0  0  0  0  0  0  0  0999 V2000
    4.1204  -11.7387   21.9830 O   0  0  0  0  0  0  0  0  0  0  0  0
    3.7150  -11.3492   23.0329 C   0  0  0  0  0  0  0  0  0  0  0  0
    2.6146  -12.4879   24.1221 N   0  0  0  0  0  0  0  0  0  0  0  0
    2.1779  -14.0497   23.9622 C   0  0  0  0  0  0  0  0  0  0  0  0
    1.9039  -14.5455   25.5559 C   0  0  0  0  0  0  0  0  0  0  0  0
    1.4874  -15.9900   26.0242 C   0  0  0  0  0  0  0  0  0  0  0  0
    2.2526  -17.1013   25.3233 C   0  0  0  0  0  0  0  0  0  0  0  0
    3.2506  -16.9043   24.6416 O   0  0  0  0  0  0  0  0  0  0  0  0
    1.8056  -18.3582   25.5372 O   0  0  0  0  0  0  0  0  0  0  0  0
    0.0048  -16.3409   26.3284 C   0  0  0  0  0  0  0  0  0  0  0  0
   -1.0796  -16.6271   25.4544 C   0  0  0  0  0  0  0  0  0  0  0  0
   -2.1794  -17.0539   26.0896 N   0  0  0  0  0  0  0  0  0  0  0  0
   -1.8390  -17.0243   27.3853 N   0  0  0  0  0  0  0  0  0  0  0  0
   -0.5457  -16.6210   27.5770 C   0  0  0  0  0  0  0  0  0  0  0  0
    4.5306   -9.5589   23.4506 C   0  0  0  0  0  0  0  0  0  0  0  0
    4.6219   -7.8596   23.3227 C   0  0  0  0  0  0  0  0  0  0  0  0
    5.9562   -7.1935   24.0085 N   0  0  0  0  0  0  0  0  0  0  0  0
    7.1105   -6.5113   23.5415 C   0  0  0  0  0  0  0  0  0  0  0  0
    8.0984   -6.1786   24.3814 C   0  0  0  0  0  0  0  0  0  0  0  0
    7.8423   -6.6043   25.7783 C   0  0  0  0  0  0  0  0  0  0  0  0
    6.8878   -7.3919   26.1818 N   0  0  0  0  0  0  0  0  0  0  0  0
    6.0539   -7.8513   25.1993 C   0  0  0  0  0  0  0  0  0  0  0  0
    5.5172   -9.0352   24.9729 N   0  0  0  0  0  0  0  0  0  0  0  0
    2.2890  -11.9616   24.9373 H   0  0  0  0  0  0  0  0  0  0  0  0
    1.1908  -14.4265   23.6592 H   0  0  0  0  0  0  0  0  0  0  0  0
    3.0306  -14.6080   23.6087 H   0  0  0  0  0  0  0  0  0  0  0  0
    1.2128  -13.8363   26.0243 H   0  0  0  0  0  0  0  0  0  0  0  0
    2.8737  -14.3427   26.0372 H   0  0  0  0  0  0  0  0  0  0  0  0
    1.9319  -16.0338   27.0354 H   0  0  0  0  0  0  0  0  0  0  0  0
    1.0081  -18.4304   26.0979 H   0  0  0  0  0  0  0  0  0  0  0  0
   -1.0926  -16.5740   24.3713 H   0  0  0  0  0  0  0  0  0  0  0  0
   -2.5291  -17.2971   28.0796 H   0  0  0  0  0  0  0  0  0  0  0  0
   -0.1255  -16.5811   28.5731 H   0  0  0  0  0  0  0  0  0  0  0  0
    3.9975   -7.2650   23.9887 H   0  0  0  0  0  0  0  0  0  0  0  0
    7.2326   -6.3844   22.4841 H   0  0  0  0  0  0  0  0  0  0  0  0
    9.0322   -5.7144   24.1053 H   0  0  0  0  0  0  0  0  0  0  0  0
    8.5535   -6.2132   26.5247 H   0  0  0  0  0  0  0  0  0  0  0  0
  1  2  2  0
  2  3  1  0
  3  4  1  0
  4  5  1  0
  5  6  1  0
  6  7  1  0
  7  8  2  0
  7  9  1  0
  6 10  1  0
 10 11  1  0
 11 12  2  0
 12 13  1  0
 13 14  1  0
  2 15  1  0
 15 16  2  0
 16 17  1  0
 17 18  1  0
 18 19  2  0
 19 20  1  0
 20 21  2  0
 21 22  1  0
 22 23  2  0
 14 10  2  0
 23 15  1  0
 22 17  1  0
  3 24  1  0
  4 25  1  0
  4 26  1  0
  5 27  1  0
  5 28  1  0
  6 29  1  0
  9 30  1  0
 11 31  1  0
 13 32  1  0
 14 33  1  0
 16 34  1  0
 18 35  1  0
 19 36  1  0
 20 37  1  0
M  END
>  <Energy>  (1100) 
482.86167316901657

>  <compound_id>  (1100) 
25671

>  <target_id>  (1100) 
1

>  <reference_id>  (1100) 
123

>  <inspiration_ids>  (1100) 
[106, 123]

>  <energy_score>  (1100) 
406.98275542619024

>  <distance_score>  (1100) 
14.24244121950501

>  <path>  (1100) 
/opt/xchem-fragalysis-2/maxwin/BulkDock/SCRATCH/511017/C25671-P123/C25671-P123.minimised.mol

>  <scratch_subdir>  (1100) 
/opt/xchem-fragalysis-2/maxwin/BulkDock/SCRATCH/511017/C25671-P123

>  <fragmenstein_runtime>  (1100) 
25.07652449607849

>  <fragmenstein_outcome>  (1100) 
too moved

>  <fragmenstein_mode>  (1100) 
expansion

>  <fragmenstein_error>  (1100) 


$$$$
C25672-P106
     RDKit          3D

 38 40  0  0  0  0  0  0  0  0999 V2000
   -3.6675  -15.6357   23.9452 C   0  0  0  0  0  0  0  0  0  0  0  0
   -2.0023  -15.3415   24.6500 C   0  0  0  0  0  0  0  0  0  0  0  0
   -0.1378  -14.3846   24.4622 C   0  0  0  0  0  0  0  0  0  0  0  0
    1.4124  -13.2944   23.8490 N   0  0  0  0  0  0  0  0  0  0  0  0
    2.8766  -13.6981   23.4013 C   0  0  0  0  0  0  0  0  0  0  0  0
    3.4379  -14.7735   23.4337 O   0  0  0  0  0  0  0  0  0  0  0  0
    3.7386  -12.1884   22.5189 C   0  0  0  0  0  0  0  0  0  0  0  0
    4.0544  -12.8562   20.9352 C   0  0  0  0  0  0  0  0  0  0  0  0
    4.9021  -12.8140   19.9364 N   0  0  0  0  0  0  0  0  0  0  0  0
    6.0102  -12.1054   20.0499 C   0  0  0  0  0  0  0  0  0  0  0  0
    7.0926  -11.9773   19.3085 N   0  0  0  0  0  0  0  0  0  0  0  0
    8.0547  -11.5364   20.1665 C   0  0  0  0  0  0  0  0  0  0  0  0
    7.5021  -11.3460   21.4119 C   0  0  0  0  0  0  0  0  0  0  0  0
    6.0984  -11.3903   21.1982 N   0  0  0  0  0  0  0  0  0  0  0  0
    4.7756  -11.1324   22.2914 C   0  0  0  0  0  0  0  0  0  0  0  0
   -2.5197  -16.9739   25.4216 N   0  0  0  0  0  0  0  0  0  0  0  0
   -2.5386  -17.4194   26.8346 C   0  0  0  0  0  0  0  0  0  0  0  0
   -2.1513  -16.8725   27.8316 O   0  0  0  0  0  0  0  0  0  0  0  0
   -3.1683  -18.7506   26.9729 C   0  0  0  0  0  0  0  0  0  0  0  0
   -3.7185  -19.3114   28.1594 C   0  0  0  0  0  0  0  0  0  0  0  0
   -4.1766  -20.5537   27.9838 N   0  0  0  0  0  0  0  0  0  0  0  0
   -3.9216  -20.8148   26.7034 N   0  0  0  0  0  0  0  0  0  0  0  0
   -3.3517  -19.7618   26.0427 C   0  0  0  0  0  0  0  0  0  0  0  0
   -4.3169  -16.1502   24.6668 H   0  0  0  0  0  0  0  0  0  0  0  0
   -4.2528  -14.8110   23.6259 H   0  0  0  0  0  0  0  0  0  0  0  0
   -3.8523  -16.3116   23.1153 H   0  0  0  0  0  0  0  0  0  0  0  0
   -1.7547  -15.4060   23.6439 H   0  0  0  0  0  0  0  0  0  0  0  0
   -0.8028  -13.6994   25.0886 H   0  0  0  0  0  0  0  0  0  0  0  0
   -0.4341  -14.1575   23.4283 H   0  0  0  0  0  0  0  0  0  0  0  0
    1.2943  -12.2491   23.7639 H   0  0  0  0  0  0  0  0  0  0  0  0
    3.2285  -13.5403   20.8073 H   0  0  0  0  0  0  0  0  0  0  0  0
    9.0914  -11.4601   19.8645 H   0  0  0  0  0  0  0  0  0  0  0  0
    7.9182  -11.1219   22.3852 H   0  0  0  0  0  0  0  0  0  0  0  0
    5.3390  -10.7065   23.1158 H   0  0  0  0  0  0  0  0  0  0  0  0
   -2.9998  -17.6454   24.8622 H   0  0  0  0  0  0  0  0  0  0  0  0
   -3.7899  -18.8554   29.1405 H   0  0  0  0  0  0  0  0  0  0  0  0
   -4.1700  -21.7298   26.3380 H   0  0  0  0  0  0  0  0  0  0  0  0
   -3.0972  -19.8572   24.9984 H   0  0  0  0  0  0  0  0  0  0  0  0
  1  2  1  0
  2  3  1  0
  3  4  1  0
  4  5  1  0
  5  6  2  0
  5  7  1  0
  7  8  1  0
  8  9  2  0
  9 10  1  0
 10 11  2  0
 11 12  1  0
 12 13  2  0
 13 14  1  0
 14 15  1  0
  2 16  1  0
 16 17  1  0
 17 18  2  0
 17 19  1  0
 19 20  1  0
 20 21  2  0
 21 22  1  0
 22 23  1  0
 15  7  2  0
 23 19  2  0
 14 10  1  0
  1 24  1  0
  1 25  1  0
  1 26  1  0
  2 27  1  0
  3 28  1  0
  3 29  1  0
  4 30  1  0
  8 31  1  0
 12 32  1  0
 13 33  1  0
 15 34  1  0
 16 35  1  0
 20 36  1  0
 22 37  1  0
 23 38  1  0
M  END
>  <Energy>  (1101) 
619.7878523625601

>  <compound_id>  (1101) 
25672

>  <target_id>  (1101) 
1

>  <reference_id>  (1101) 
106

>  <inspiration_ids>  (1101) 
[106, 123]

>  <energy_score>  (1101) 
581.8966462134093

>  <distance_score>  (1101) 
13.34377565637519

>  <path>  (1101) 
/opt/xchem-fragalysis-2/maxwin/BulkDock/SCRATCH/511017/C25672-P106/C25672-P106.minimised.mol

>  <scratch_subdir>  (1101) 
/opt/xchem-fragalysis-2/maxwin/BulkDock/SCRATCH/511017/C25672-P106

>  <fragmenstein_runtime>  (1101) 
30.445720672607422

>  <fragmenstein_outcome>  (1101) 
too moved

>  <fragmenstein_mode>  (1101) 
expansion

>  <fragmenstein_error>  (1101) 


$$$$
C25672-P123
     RDKit          3D

 38 40  0  0  0  0  0  0  0  0999 V2000
   -1.8827  -15.0197   27.0528 C   0  0  0  0  0  0  0  0  0  0  0  0
   -0.2657  -14.3125   27.3314 C   0  0  0  0  0  0  0  0  0  0  0  0
    1.1512  -13.3828   26.1325 C   0  0  0  0  0  0  0  0  0  0  0  0
    1.9468  -12.7655   24.5287 N   0  0  0  0  0  0  0  0  0  0  0  0
    3.0004  -13.3427   23.6840 C   0  0  0  0  0  0  0  0  0  0  0  0
    3.5666  -14.4042   23.7634 O   0  0  0  0  0  0  0  0  0  0  0  0
    3.6845  -12.2643   22.2882 C   0  0  0  0  0  0  0  0  0  0  0  0
    4.9603  -11.0867   22.1847 C   0  0  0  0  0  0  0  0  0  0  0  0
    6.1494  -11.2231   21.4868 N   0  0  0  0  0  0  0  0  0  0  0  0
    6.1819  -11.9183   20.3459 C   0  0  0  0  0  0  0  0  0  0  0  0
    7.0450  -11.8257   19.3581 N   0  0  0  0  0  0  0  0  0  0  0  0
    6.5094  -12.5988   18.3742 C   0  0  0  0  0  0  0  0  0  0  0  0
    5.3244  -13.1634   18.7919 C   0  0  0  0  0  0  0  0  0  0  0  0
    5.0962  -12.7095   20.0879 N   0  0  0  0  0  0  0  0  0  0  0  0
    4.0140  -12.8926   21.0587 C   0  0  0  0  0  0  0  0  0  0  0  0
   -0.4594  -15.6972   28.6967 N   0  0  0  0  0  0  0  0  0  0  0  0
   -1.4954  -15.8923   29.7501 C   0  0  0  0  0  0  0  0  0  0  0  0
   -2.4219  -15.1984   30.0730 O   0  0  0  0  0  0  0  0  0  0  0  0
   -1.4565  -17.1978   30.4579 C   0  0  0  0  0  0  0  0  0  0  0  0
   -0.8099  -18.4265   30.1903 C   0  0  0  0  0  0  0  0  0  0  0  0
   -1.2711  -19.4532   30.9194 N   0  0  0  0  0  0  0  0  0  0  0  0
   -2.2475  -18.9033   31.6572 N   0  0  0  0  0  0  0  0  0  0  0  0
   -2.3790  -17.5663   31.4375 C   0  0  0  0  0  0  0  0  0  0  0  0
   -2.0130  -16.1159   27.2279 H   0  0  0  0  0  0  0  0  0  0  0  0
   -2.2620  -14.6580   26.0866 H   0  0  0  0  0  0  0  0  0  0  0  0
   -2.3961  -14.7233   27.9270 H   0  0  0  0  0  0  0  0  0  0  0  0
    0.8144  -14.7306   27.0253 H   0  0  0  0  0  0  0  0  0  0  0  0
    1.1127  -12.3467   26.4650 H   0  0  0  0  0  0  0  0  0  0  0  0
    2.0918  -13.7578   26.5521 H   0  0  0  0  0  0  0  0  0  0  0  0
    1.6451  -11.8974   24.1276 H   0  0  0  0  0  0  0  0  0  0  0  0
    5.0897  -10.4713   23.0448 H   0  0  0  0  0  0  0  0  0  0  0  0
    6.9933  -12.7132   17.4136 H   0  0  0  0  0  0  0  0  0  0  0  0
    4.6162  -13.8052   18.2922 H   0  0  0  0  0  0  0  0  0  0  0  0
    3.3107  -13.6612   20.8521 H   0  0  0  0  0  0  0  0  0  0  0  0
    0.2230  -16.4478   28.7568 H   0  0  0  0  0  0  0  0  0  0  0  0
   -0.0478  -18.6369   29.4523 H   0  0  0  0  0  0  0  0  0  0  0  0
   -2.7886  -19.4983   32.2773 H   0  0  0  0  0  0  0  0  0  0  0  0
   -3.1557  -16.9922   31.9249 H   0  0  0  0  0  0  0  0  0  0  0  0
  1  2  1  0
  2  3  1  0
  3  4  1  0
  4  5  1  0
  5  6  2  0
  5  7  1  0
  7  8  1  0
  8  9  2  0
  9 10  1  0
 10 11  2  0
 11 12  1  0
 12 13  2  0
 13 14  1  0
 14 15  1  0
  2 16  1  0
 16 17  1  0
 17 18  2  0
 17 19  1  0
 19 20  1  0
 20 21  2  0
 21 22  1  0
 22 23  1  0
 15  7  2  0
 23 19  2  0
 14 10  1  0
  1 24  1  0
  1 25  1  0
  1 26  1  0
  2 27  1  0
  3 28  1  0
  3 29  1  0
  4 30  1  0
  8 31  1  0
 12 32  1  0
 13 33  1  0
 15 34  1  0
 16 35  1  0
 20 36  1  0
 22 37  1  0
 23 38  1  0
M  END
>  <Energy>  (1102) 
517.33963480477746

>  <compound_id>  (1102) 
25672

>  <target_id>  (1102) 
1

>  <reference_id>  (1102) 
123

>  <inspiration_ids>  (1102) 
[106, 123]

>  <energy_score>  (1102) 
479.4484286556268

>  <distance_score>  (1102) 
13.890627988312678

>  <path>  (1102) 
/opt/xchem-fragalysis-2/maxwin/BulkDock/SCRATCH/511017/C25672-P123/C25672-P123.minimised.mol

>  <scratch_subdir>  (1102) 
/opt/xchem-fragalysis-2/maxwin/BulkDock/SCRATCH/511017/C25672-P123

>  <fragmenstein_runtime>  (1102) 
27.982981204986572

>  <fragmenstein_outcome>  (1102) 
too moved

>  <fragmenstein_mode>  (1102) 
expansion

>  <fragmenstein_error>  (1102) 


$$$$
C25673-P106
     RDKit          3D

 44 46  0  0  0  0  0  0  0  0999 V2000
    5.3366  -17.2025   25.9155 C   0  0  0  0  0  0  0  0  0  0  0  0
    6.2544  -16.2361   26.6714 C   0  0  0  0  0  0  0  0  0  0  0  0
    7.5081  -16.0118   25.8217 C   0  0  0  0  0  0  0  0  0  0  0  0
    5.5567  -14.8965   27.0731 C   0  0  0  0  0  0  0  0  0  0  0  0
    6.5114  -13.7120   27.5485 C   0  0  0  0  0  0  0  0  0  0  0  0
    6.9774  -12.6620   26.5485 N   0  0  0  0  0  0  0  0  0  0  0  0
    8.2472  -12.5024   25.8532 C   0  0  0  0  0  0  0  0  0  0  0  0
    9.2210  -13.2048   25.8325 O   0  0  0  0  0  0  0  0  0  0  0  0
    8.4378  -11.1577   25.0748 C   0  0  0  0  0  0  0  0  0  0  0  0
    8.0512   -9.7747   25.5394 C   0  0  0  0  0  0  0  0  0  0  0  0
    8.3831   -8.6196   25.0281 N   0  0  0  0  0  0  0  0  0  0  0  0
    9.1710   -8.6430   23.9136 C   0  0  0  0  0  0  0  0  0  0  0  0
    9.6223   -7.6464   23.1732 N   0  0  0  0  0  0  0  0  0  0  0  0
   10.4164   -8.2140   22.2141 C   0  0  0  0  0  0  0  0  0  0  0  0
   10.4105   -9.5851   22.3248 C   0  0  0  0  0  0  0  0  0  0  0  0
    9.6097   -9.8633   23.4099 N   0  0  0  0  0  0  0  0  0  0  0  0
    9.2578  -11.0885   23.9935 C   0  0  0  0  0  0  0  0  0  0  0  0
    4.4478  -15.3104   27.9957 N   0  0  0  0  0  0  0  0  0  0  0  0
    4.4742  -15.7752   29.3555 C   0  0  0  0  0  0  0  0  0  0  0  0
    5.3806  -15.8741   30.1272 O   0  0  0  0  0  0  0  0  0  0  0  0
    3.1225  -16.2989   29.7796 C   0  0  0  0  0  0  0  0  0  0  0  0
    2.5348  -16.3455   31.0799 C   0  0  0  0  0  0  0  0  0  0  0  0
    1.3384  -16.9505   31.1221 N   0  0  0  0  0  0  0  0  0  0  0  0
    1.1574  -17.3670   29.8630 N   0  0  0  0  0  0  0  0  0  0  0  0
    2.1848  -17.0070   29.0285 C   0  0  0  0  0  0  0  0  0  0  0  0
    5.0713  -16.7976   24.9343 H   0  0  0  0  0  0  0  0  0  0  0  0
    5.8436  -18.1594   25.7470 H   0  0  0  0  0  0  0  0  0  0  0  0
    4.4202  -17.4213   26.4696 H   0  0  0  0  0  0  0  0  0  0  0  0
    6.5775  -16.7451   27.5897 H   0  0  0  0  0  0  0  0  0  0  0  0
    8.2983  -15.5380   26.4089 H   0  0  0  0  0  0  0  0  0  0  0  0
    7.9150  -16.9635   25.4622 H   0  0  0  0  0  0  0  0  0  0  0  0
    7.2914  -15.3880   24.9485 H   0  0  0  0  0  0  0  0  0  0  0  0
    5.0362  -14.5279   26.1823 H   0  0  0  0  0  0  0  0  0  0  0  0
    5.9774  -13.1316   28.3094 H   0  0  0  0  0  0  0  0  0  0  0  0
    7.4079  -14.1240   28.0230 H   0  0  0  0  0  0  0  0  0  0  0  0
    6.3535  -11.9168   26.2719 H   0  0  0  0  0  0  0  0  0  0  0  0
    7.4281   -9.7597   26.4489 H   0  0  0  0  0  0  0  0  0  0  0  0
   10.9561   -7.5995   21.5081 H   0  0  0  0  0  0  0  0  0  0  0  0
   10.9058  -10.3629   21.7624 H   0  0  0  0  0  0  0  0  0  0  0  0
    9.7110  -11.9732   23.5604 H   0  0  0  0  0  0  0  0  0  0  0  0
    3.5289  -15.4413   27.6251 H   0  0  0  0  0  0  0  0  0  0  0  0
    2.9532  -15.9520   31.9987 H   0  0  0  0  0  0  0  0  0  0  0  0
    0.3207  -17.8996   29.6449 H   0  0  0  0  0  0  0  0  0  0  0  0
    2.1811  -17.3255   27.9971 H   0  0  0  0  0  0  0  0  0  0  0  0
  1  2  1  0
  2  3  1  0
  2  4  1  0
  4  5  1  0
  5  6  1  0
  6  7  1  0
  7  8  2  0
  7  9  1  0
  9 10  1  0
 10 11  2  0
 11 12  1  0
 12 13  2  0
 13 14  1  0
 14 15  2  0
 15 16  1  0
 16 17  1  0
  4 18  1  0
 18 19  1  0
 19 20  2  0
 19 21  1  0
 21 22  1  0
 22 23  2  0
 23 24  1  0
 24 25  1  0
 17  9  2  0
 25 21  2  0
 16 12  1  0
  1 26  1  0
  1 27  1  0
  1 28  1  0
  2 29  1  0
  3 30  1  0
  3 31  1  0
  3 32  1  0
  4 33  1  0
  5 34  1  0
  5 35  1  0
  6 36  1  0
 10 37  1  0
 14 38  1  0
 15 39  1  0
 17 40  1  0
 18 41  1  0
 22 42  1  0
 24 43  1  0
 25 44  1  0
M  END
>  <Energy>  (1103) 
37.812170749313715

>  <compound_id>  (1103) 
25673

>  <target_id>  (1103) 
1

>  <reference_id>  (1103) 
106

>  <inspiration_ids>  (1103) 
[106, 123]

>  <energy_score>  (1103) 
-51.252284149897605

>  <distance_score>  (1103) 
15.193317845807732

>  <path>  (1103) 
/opt/xchem-fragalysis-2/maxwin/BulkDock/SCRATCH/511017/C25673-P106/C25673-P106.minimised.mol

>  <scratch_subdir>  (1103) 
/opt/xchem-fragalysis-2/maxwin/BulkDock/SCRATCH/511017/C25673-P106

>  <fragmenstein_runtime>  (1103) 
45.841790437698364

>  <fragmenstein_outcome>  (1103) 
too moved

>  <fragmenstein_mode>  (1103) 
expansion

>  <fragmenstein_error>  (1103) 


$$$$
C25673-P123
     RDKit          3D

 44 46  0  0  0  0  0  0  0  0999 V2000
   -1.1097  -18.9469   18.7621 C   0  0  0  0  0  0  0  0  0  0  0  0
   -2.2618  -18.3044   17.9816 C   0  0  0  0  0  0  0  0  0  0  0  0
   -3.2866  -19.3989   17.6274 C   0  0  0  0  0  0  0  0  0  0  0  0
   -2.8763  -17.0459   18.6890 C   0  0  0  0  0  0  0  0  0  0  0  0
   -1.9057  -15.5783   18.9763 C   0  0  0  0  0  0  0  0  0  0  0  0
   -1.9521  -13.8783   18.2458 N   0  0  0  0  0  0  0  0  0  0  0  0
   -2.1736  -12.3663   18.9882 C   0  0  0  0  0  0  0  0  0  0  0  0
   -2.2605  -12.1281   20.1753 O   0  0  0  0  0  0  0  0  0  0  0  0
   -2.4132  -11.0786   18.1822 C   0  0  0  0  0  0  0  0  0  0  0  0
   -3.4456  -10.6594   17.1833 C   0  0  0  0  0  0  0  0  0  0  0  0
   -3.4530   -9.5374   16.4811 N   0  0  0  0  0  0  0  0  0  0  0  0
   -2.4874   -8.6005   16.7723 C   0  0  0  0  0  0  0  0  0  0  0  0
   -1.9921   -7.6060   16.0577 N   0  0  0  0  0  0  0  0  0  0  0  0
   -0.9145   -7.1281   16.7628 C   0  0  0  0  0  0  0  0  0  0  0  0
   -0.7455   -7.8593   17.9110 C   0  0  0  0  0  0  0  0  0  0  0  0
   -1.7888   -8.7616   17.9461 N   0  0  0  0  0  0  0  0  0  0  0  0
   -1.9796   -9.9019   18.7369 C   0  0  0  0  0  0  0  0  0  0  0  0
   -3.3865  -17.6130   19.9802 N   0  0  0  0  0  0  0  0  0  0  0  0
   -4.6124  -18.3168   20.2879 C   0  0  0  0  0  0  0  0  0  0  0  0
   -5.5655  -18.5553   19.6083 O   0  0  0  0  0  0  0  0  0  0  0  0
   -4.5873  -18.8900   21.6366 C   0  0  0  0  0  0  0  0  0  0  0  0
   -5.1730  -18.4159   22.8348 C   0  0  0  0  0  0  0  0  0  0  0  0
   -4.7954  -19.1361   23.8981 N   0  0  0  0  0  0  0  0  0  0  0  0
   -4.2340  -20.2310   23.3542 N   0  0  0  0  0  0  0  0  0  0  0  0
   -4.0296  -20.1023   22.0118 C   0  0  0  0  0  0  0  0  0  0  0  0
   -1.4711  -19.4989   19.6365 H   0  0  0  0  0  0  0  0  0  0  0  0
   -0.5706  -19.6587   18.1274 H   0  0  0  0  0  0  0  0  0  0  0  0
   -0.3918  -18.2087   19.1187 H   0  0  0  0  0  0  0  0  0  0  0  0
   -1.9096  -18.0036   16.9944 H   0  0  0  0  0  0  0  0  0  0  0  0
   -2.8478  -20.1029   16.9103 H   0  0  0  0  0  0  0  0  0  0  0  0
   -3.5886  -19.9884   18.4971 H   0  0  0  0  0  0  0  0  0  0  0  0
   -4.1780  -18.9693   17.1593 H   0  0  0  0  0  0  0  0  0  0  0  0
   -3.7623  -16.8077   18.0918 H   0  0  0  0  0  0  0  0  0  0  0  0
   -1.0392  -15.8677   19.5335 H   0  0  0  0  0  0  0  0  0  0  0  0
   -2.3444  -15.3176   19.9503 H   0  0  0  0  0  0  0  0  0  0  0  0
   -1.8341  -13.7487   17.2439 H   0  0  0  0  0  0  0  0  0  0  0  0
   -4.2343  -11.4043   16.9797 H   0  0  0  0  0  0  0  0  0  0  0  0
   -0.2939   -6.3304   16.3765 H   0  0  0  0  0  0  0  0  0  0  0  0
    0.0574   -7.9079   18.6289 H   0  0  0  0  0  0  0  0  0  0  0  0
   -1.5441   -9.8451   19.7270 H   0  0  0  0  0  0  0  0  0  0  0  0
   -2.7617  -17.6722   20.7765 H   0  0  0  0  0  0  0  0  0  0  0  0
   -5.7683  -17.5283   22.9941 H   0  0  0  0  0  0  0  0  0  0  0  0
   -3.9894  -21.0076   23.9619 H   0  0  0  0  0  0  0  0  0  0  0  0
   -3.5310  -20.8711   21.4379 H   0  0  0  0  0  0  0  0  0  0  0  0
  1  2  1  0
  2  3  1  0
  2  4  1  0
  4  5  1  0
  5  6  1  0
  6  7  1  0
  7  8  2  0
  7  9  1  0
  9 10  1  0
 10 11  2  0
 11 12  1  0
 12 13  2  0
 13 14  1  0
 14 15  2  0
 15 16  1  0
 16 17  1  0
  4 18  1  0
 18 19  1  0
 19 20  2  0
 19 21  1  0
 21 22  1  0
 22 23  2  0
 23 24  1  0
 24 25  1  0
 17  9  2  0
 25 21  2  0
 16 12  1  0
  1 26  1  0
  1 27  1  0
  1 28  1  0
  2 29  1  0
  3 30  1  0
  3 31  1  0
  3 32  1  0
  4 33  1  0
  5 34  1  0
  5 35  1  0
  6 36  1  0
 10 37  1  0
 14 38  1  0
 15 39  1  0
 17 40  1  0
 18 41  1  0
 22 42  1  0
 24 43  1  0
 25 44  1  0
M  END
>  <Energy>  (1104) 
176.28470249895986

>  <compound_id>  (1104) 
25673

>  <target_id>  (1104) 
1

>  <reference_id>  (1104) 
123

>  <inspiration_ids>  (1104) 
[106, 123]

>  <energy_score>  (1104) 
87.22024759974863

>  <distance_score>  (1104) 
16.071993394025917

>  <path>  (1104) 
/opt/xchem-fragalysis-2/maxwin/BulkDock/SCRATCH/511017/C25673-P123/C25673-P123.minimised.mol

>  <scratch_subdir>  (1104) 
/opt/xchem-fragalysis-2/maxwin/BulkDock/SCRATCH/511017/C25673-P123

>  <fragmenstein_runtime>  (1104) 
37.6841561794281

>  <fragmenstein_outcome>  (1104) 
too moved

>  <fragmenstein_mode>  (1104) 
expansion

>  <fragmenstein_error>  (1104) 


$$$$
C25674-P106
     RDKit          3D

 39 41  0  0  0  0  0  0  0  0999 V2000
   -1.7168  -19.1987   16.4968 O   0  0  0  0  0  0  0  0  0  0  0  0
   -0.8609  -19.1746   17.3328 C   0  0  0  0  0  0  0  0  0  0  0  0
    0.5721  -18.9530   17.2128 N   0  0  0  0  0  0  0  0  0  0  0  0
    1.4581  -18.7826   15.9822 C   0  0  0  0  0  0  0  0  0  0  0  0
    1.0797  -20.0094   15.1037 C   0  0  0  0  0  0  0  0  0  0  0  0
    1.3461  -21.2329   15.7878 O   0  0  0  0  0  0  0  0  0  0  0  0
    1.4669  -17.4234   15.0488 C   0  0  0  0  0  0  0  0  0  0  0  0
    2.6641  -16.4520   14.9015 N   0  0  0  0  0  0  0  0  0  0  0  0
    2.9424  -15.1407   15.5509 C   0  0  0  0  0  0  0  0  0  0  0  0
    2.3441  -14.5545   16.4095 O   0  0  0  0  0  0  0  0  0  0  0  0
    4.1138  -14.3853   14.9563 C   0  0  0  0  0  0  0  0  0  0  0  0
    4.5250  -14.3443   13.6285 C   0  0  0  0  0  0  0  0  0  0  0  0
    5.4946  -13.4078   13.3755 N   0  0  0  0  0  0  0  0  0  0  0  0
    5.7335  -12.8055   14.5162 C   0  0  0  0  0  0  0  0  0  0  0  0
    6.6382  -11.8020   14.7509 N   0  0  0  0  0  0  0  0  0  0  0  0
    6.7585  -11.4178   15.9814 C   0  0  0  0  0  0  0  0  0  0  0  0
    5.9910  -11.9521   17.1318 C   0  0  0  0  0  0  0  0  0  0  0  0
    5.0907  -12.9119   16.8483 C   0  0  0  0  0  0  0  0  0  0  0  0
    4.9366  -13.3697   15.5365 N   0  0  0  0  0  0  0  0  0  0  0  0
   -1.3564  -19.5366   18.7246 C   0  0  0  0  0  0  0  0  0  0  0  0
   -0.7659  -19.7376   20.0084 C   0  0  0  0  0  0  0  0  0  0  0  0
   -1.6267  -20.1275   20.9659 N   0  0  0  0  0  0  0  0  0  0  0  0
   -2.7958  -20.2082   20.3170 N   0  0  0  0  0  0  0  0  0  0  0  0
   -2.6912  -19.8500   19.0049 C   0  0  0  0  0  0  0  0  0  0  0  0
    1.0043  -19.0845   18.1198 H   0  0  0  0  0  0  0  0  0  0  0  0
    2.4731  -18.9487   16.3384 H   0  0  0  0  0  0  0  0  0  0  0  0
    1.6970  -20.0213   14.1993 H   0  0  0  0  0  0  0  0  0  0  0  0
    0.0326  -19.9963   14.7867 H   0  0  0  0  0  0  0  0  0  0  0  0
    0.7558  -21.2493   16.5619 H   0  0  0  0  0  0  0  0  0  0  0  0
    1.3927  -17.7889   14.0155 H   0  0  0  0  0  0  0  0  0  0  0  0
    0.5587  -16.8310   15.1673 H   0  0  0  0  0  0  0  0  0  0  0  0
    3.3323  -16.6023   14.1562 H   0  0  0  0  0  0  0  0  0  0  0  0
    4.1216  -14.9219   12.8059 H   0  0  0  0  0  0  0  0  0  0  0  0
    7.5012  -10.6471   16.2259 H   0  0  0  0  0  0  0  0  0  0  0  0
    6.1643  -11.5594   18.1223 H   0  0  0  0  0  0  0  0  0  0  0  0
    4.4712  -13.3667   17.6133 H   0  0  0  0  0  0  0  0  0  0  0  0
    0.2725  -19.6388   20.2925 H   0  0  0  0  0  0  0  0  0  0  0  0
   -3.6242  -20.5035   20.8260 H   0  0  0  0  0  0  0  0  0  0  0  0
   -3.5578  -19.8642   18.3576 H   0  0  0  0  0  0  0  0  0  0  0  0
  1  2  2  0
  2  3  1  0
  3  4  1  0
  4  5  1  0
  5  6  1  0
  4  7  1  0
  7  8  1  0
  8  9  1  0
  9 10  2  0
  9 11  1  0
 11 12  2  0
 12 13  1  0
 13 14  2  0
 14 15  1  0
 15 16  2  0
 16 17  1  0
 17 18  2  0
 18 19  1  0
  2 20  1  0
 20 21  1  0
 21 22  2  0
 22 23  1  0
 23 24  1  0
 19 11  1  0
 24 20  2  0
 19 14  1  0
  3 25  1  0
  4 26  1  0
  5 27  1  0
  5 28  1  0
  6 29  1  0
  7 30  1  0
  7 31  1  0
  8 32  1  0
 12 33  1  0
 16 34  1  0
 17 35  1  0
 18 36  1  0
 21 37  1  0
 23 38  1  0
 24 39  1  0
M  END
>  <Energy>  (1105) 
45.239206980787202

>  <compound_id>  (1105) 
25674

>  <target_id>  (1105) 
1

>  <reference_id>  (1105) 
106

>  <inspiration_ids>  (1105) 
[106, 123]

>  <energy_score>  (1105) 
1.4580120410373638

>  <distance_score>  (1105) 
15.932664113266224

>  <path>  (1105) 
/opt/xchem-fragalysis-2/maxwin/BulkDock/SCRATCH/511017/C25674-P106/C25674-P106.minimised.mol

>  <scratch_subdir>  (1105) 
/opt/xchem-fragalysis-2/maxwin/BulkDock/SCRATCH/511017/C25674-P106

>  <fragmenstein_runtime>  (1105) 
62.406707763671875

>  <fragmenstein_outcome>  (1105) 
too moved

>  <fragmenstein_mode>  (1105) 
expansion

>  <fragmenstein_error>  (1105) 


$$$$
C25674-P123
     RDKit          3D

 39 41  0  0  0  0  0  0  0  0999 V2000
   -0.1430  -19.7780   19.1949 O   0  0  0  0  0  0  0  0  0  0  0  0
   -0.1880  -19.3003   20.2927 C   0  0  0  0  0  0  0  0  0  0  0  0
    0.1409  -17.9482   20.7594 N   0  0  0  0  0  0  0  0  0  0  0  0
    0.5789  -16.5709   19.9135 C   0  0  0  0  0  0  0  0  0  0  0  0
   -1.2835  -16.6243   19.6537 C   0  0  0  0  0  0  0  0  0  0  0  0
   -1.9828  -15.4745   19.9455 O   0  0  0  0  0  0  0  0  0  0  0  0
    1.8305  -15.3662   18.6180 C   0  0  0  0  0  0  0  0  0  0  0  0
    3.2386  -15.0389   18.1519 N   0  0  0  0  0  0  0  0  0  0  0  0
    3.7129  -14.1394   17.1194 C   0  0  0  0  0  0  0  0  0  0  0  0
    3.1098  -13.4886   16.3170 O   0  0  0  0  0  0  0  0  0  0  0  0
    5.1828  -13.9592   17.1742 C   0  0  0  0  0  0  0  0  0  0  0  0
    6.2286  -14.8409   17.3804 C   0  0  0  0  0  0  0  0  0  0  0  0
    7.4243  -14.2144   17.6255 N   0  0  0  0  0  0  0  0  0  0  0  0
    7.1472  -12.9336   17.6271 C   0  0  0  0  0  0  0  0  0  0  0  0
    7.9110  -11.9096   18.1021 N   0  0  0  0  0  0  0  0  0  0  0  0
    7.3717  -10.7401   17.9996 C   0  0  0  0  0  0  0  0  0  0  0  0
    6.1054  -10.4047   17.2829 C   0  0  0  0  0  0  0  0  0  0  0  0
    5.3922  -11.4551   16.8673 C   0  0  0  0  0  0  0  0  0  0  0  0
    5.8512  -12.7300   17.1396 N   0  0  0  0  0  0  0  0  0  0  0  0
   -0.7686  -20.1619   21.3865 C   0  0  0  0  0  0  0  0  0  0  0  0
   -0.3669  -20.5804   22.6839 C   0  0  0  0  0  0  0  0  0  0  0  0
   -1.3229  -21.2179   23.3816 N   0  0  0  0  0  0  0  0  0  0  0  0
   -2.3029  -21.3779   22.4808 N   0  0  0  0  0  0  0  0  0  0  0  0
   -2.0330  -20.7476   21.2981 C   0  0  0  0  0  0  0  0  0  0  0  0
   -0.0933  -17.8715   21.7299 H   0  0  0  0  0  0  0  0  0  0  0  0
    0.7163  -17.3956   19.1319 H   0  0  0  0  0  0  0  0  0  0  0  0
   -1.5812  -17.0113   18.6793 H   0  0  0  0  0  0  0  0  0  0  0  0
   -1.7704  -17.3950   20.2636 H   0  0  0  0  0  0  0  0  0  0  0  0
   -2.1141  -15.5517   20.9087 H   0  0  0  0  0  0  0  0  0  0  0  0
    1.3942  -14.5482   18.0029 H   0  0  0  0  0  0  0  0  0  0  0  0
    2.2563  -14.8855   19.5586 H   0  0  0  0  0  0  0  0  0  0  0  0
    4.0333  -15.3564   18.7069 H   0  0  0  0  0  0  0  0  0  0  0  0
    6.1800  -15.9166   17.4318 H   0  0  0  0  0  0  0  0  0  0  0  0
    7.8798   -9.9154   18.5184 H   0  0  0  0  0  0  0  0  0  0  0  0
    5.6954   -9.4069   17.2360 H   0  0  0  0  0  0  0  0  0  0  0  0
    4.4021  -11.3498   16.4426 H   0  0  0  0  0  0  0  0  0  0  0  0
    0.5875  -20.4395   23.1693 H   0  0  0  0  0  0  0  0  0  0  0  0
   -3.1321  -21.9041   22.7424 H   0  0  0  0  0  0  0  0  0  0  0  0
   -2.7533  -20.7496   20.4911 H   0  0  0  0  0  0  0  0  0  0  0  0
  1  2  2  0
  2  3  1  0
  3  4  1  0
  4  5  1  0
  5  6  1  0
  4  7  1  0
  7  8  1  0
  8  9  1  0
  9 10  2  0
  9 11  1  0
 11 12  2  0
 12 13  1  0
 13 14  2  0
 14 15  1  0
 15 16  2  0
 16 17  1  0
 17 18  2  0
 18 19  1  0
  2 20  1  0
 20 21  1  0
 21 22  2  0
 22 23  1  0
 23 24  1  0
 19 11  1  0
 24 20  2  0
 19 14  1  0
  3 25  1  0
  4 26  1  0
  5 27  1  0
  5 28  1  0
  6 29  1  0
  7 30  1  0
  7 31  1  0
  8 32  1  0
 12 33  1  0
 16 34  1  0
 17 35  1  0
 18 36  1  0
 21 37  1  0
 23 38  1  0
 24 39  1  0
M  END
>  <Energy>  (1106) 
327.65673193645193

>  <compound_id>  (1106) 
25674

>  <target_id>  (1106) 
1

>  <reference_id>  (1106) 
123

>  <inspiration_ids>  (1106) 
[106, 123]

>  <energy_score>  (1106) 
283.8755369967057

>  <distance_score>  (1106) 
14.604372903023986

>  <path>  (1106) 
/opt/xchem-fragalysis-2/maxwin/BulkDock/SCRATCH/511017/C25674-P123/C25674-P123.minimised.mol

>  <scratch_subdir>  (1106) 
/opt/xchem-fragalysis-2/maxwin/BulkDock/SCRATCH/511017/C25674-P123

>  <fragmenstein_runtime>  (1106) 
39.61505675315857

>  <fragmenstein_outcome>  (1106) 
too moved

>  <fragmenstein_mode>  (1106) 
expansion

>  <fragmenstein_error>  (1106) 


$$$$
C25675-P106
     RDKit          3D

 41 43  0  0  0  0  0  0  0  0999 V2000
   -2.4751  -15.4599   24.6645 C   0  0  0  0  0  0  0  0  0  0  0  0
   -1.8621  -14.3280   25.8897 C   0  0  0  0  0  0  0  0  0  0  0  0
   -2.1421  -15.2529   26.6695 N   0  0  0  0  0  0  0  0  0  0  0  0
   -1.1445  -13.8095   25.5110 C   0  0  0  0  0  0  0  0  0  0  0  0
    0.8732  -13.4778   26.1341 C   0  0  0  0  0  0  0  0  0  0  0  0
    2.5783  -13.9197   26.8610 N   0  0  0  0  0  0  0  0  0  0  0  0
    3.9763  -14.3463   26.1157 C   0  0  0  0  0  0  0  0  0  0  0  0
    4.2028  -14.5629   24.9388 O   0  0  0  0  0  0  0  0  0  0  0  0
    5.3296  -14.3833   26.9848 C   0  0  0  0  0  0  0  0  0  0  0  0
    5.5959  -13.1975   27.9261 C   0  0  0  0  0  0  0  0  0  0  0  0
    6.3754  -12.1579   27.7711 N   0  0  0  0  0  0  0  0  0  0  0  0
    7.1424  -12.1458   26.6427 C   0  0  0  0  0  0  0  0  0  0  0  0
    7.8384  -11.1671   26.0913 N   0  0  0  0  0  0  0  0  0  0  0  0
    8.4512  -11.7115   24.9919 C   0  0  0  0  0  0  0  0  0  0  0  0
    8.1420  -13.0485   24.8814 C   0  0  0  0  0  0  0  0  0  0  0  0
    7.2462  -13.3128   25.9001 N   0  0  0  0  0  0  0  0  0  0  0  0
    6.4147  -14.4429   26.1349 C   0  0  0  0  0  0  0  0  0  0  0  0
   -1.6389  -15.7435   28.2728 C   0  0  0  0  0  0  0  0  0  0  0  0
   -0.8089  -15.3421   28.9856 O   0  0  0  0  0  0  0  0  0  0  0  0
   -2.5226  -16.8278   28.8025 C   0  0  0  0  0  0  0  0  0  0  0  0
   -3.0424  -16.9066   30.1302 C   0  0  0  0  0  0  0  0  0  0  0  0
   -3.8196  -17.9718   30.3488 N   0  0  0  0  0  0  0  0  0  0  0  0
   -3.7944  -18.6160   29.1741 N   0  0  0  0  0  0  0  0  0  0  0  0
   -2.9921  -18.0038   28.2410 C   0  0  0  0  0  0  0  0  0  0  0  0
   -3.3965  -15.2979   24.1098 H   0  0  0  0  0  0  0  0  0  0  0  0
   -2.5197  -16.4743   25.0321 H   0  0  0  0  0  0  0  0  0  0  0  0
   -1.7461  -15.3771   23.8924 H   0  0  0  0  0  0  0  0  0  0  0  0
   -2.8107  -13.6913   26.1788 H   0  0  0  0  0  0  0  0  0  0  0  0
   -1.2559  -14.5869   26.9782 H   0  0  0  0  0  0  0  0  0  0  0  0
   -0.7135  -14.2019   24.4531 H   0  0  0  0  0  0  0  0  0  0  0  0
   -1.6759  -12.6775   25.4490 H   0  0  0  0  0  0  0  0  0  0  0  0
    0.9734  -12.4195   26.3474 H   0  0  0  0  0  0  0  0  0  0  0  0
    1.3712  -13.3956   25.1825 H   0  0  0  0  0  0  0  0  0  0  0  0
    2.7578  -13.7414   27.8249 H   0  0  0  0  0  0  0  0  0  0  0  0
    4.9913  -13.2380   28.8492 H   0  0  0  0  0  0  0  0  0  0  0  0
    9.0858  -11.1150   24.3496 H   0  0  0  0  0  0  0  0  0  0  0  0
    8.4166  -13.7996   24.1564 H   0  0  0  0  0  0  0  0  0  0  0  0
    6.4421  -15.1556   25.3154 H   0  0  0  0  0  0  0  0  0  0  0  0
   -2.8834  -16.1985   30.9345 H   0  0  0  0  0  0  0  0  0  0  0  0
   -4.3327  -19.4745   29.0945 H   0  0  0  0  0  0  0  0  0  0  0  0
   -2.8254  -18.4554   27.2766 H   0  0  0  0  0  0  0  0  0  0  0  0
  1  2  1  0
  2  3  1  0
  3  4  1  0
  4  5  1  0
  5  6  1  0
  6  7  1  0
  7  8  2  0
  7  9  1  0
  9 10  1  0
 10 11  2  0
 11 12  1  0
 12 13  2  0
 13 14  1  0
 14 15  2  0
 15 16  1  0
 16 17  1  0
  3 18  1  0
 18 19  2  0
 18 20  1  0
 20 21  1  0
 21 22  2  0
 22 23  1  0
 23 24  1  0
 17  9  2  0
 24 20  2  0
 16 12  1  0
  1 25  1  0
  1 26  1  0
  1 27  1  0
  2 28  1  0
  2 29  1  0
  4 30  1  0
  4 31  1  0
  5 32  1  0
  5 33  1  0
  6 34  1  0
 10 35  1  0
 14 36  1  0
 15 37  1  0
 17 38  1  0
 21 39  1  0
 23 40  1  0
 24 41  1  0
M  END
>  <Energy>  (1107) 
1155.5224619348364

>  <compound_id>  (1107) 
25675

>  <target_id>  (1107) 
1

>  <reference_id>  (1107) 
106

>  <inspiration_ids>  (1107) 
[106, 123]

>  <energy_score>  (1107) 
1106.4790058824758

>  <distance_score>  (1107) 
15.252110156098357

>  <path>  (1107) 
/opt/xchem-fragalysis-2/maxwin/BulkDock/SCRATCH/511017/C25675-P106/C25675-P106.minimised.mol

>  <scratch_subdir>  (1107) 
/opt/xchem-fragalysis-2/maxwin/BulkDock/SCRATCH/511017/C25675-P106

>  <fragmenstein_runtime>  (1107) 
40.66515135765076

>  <fragmenstein_outcome>  (1107) 
too moved

>  <fragmenstein_mode>  (1107) 
expansion

>  <fragmenstein_error>  (1107) 


$$$$
C25675-P123
     RDKit          3D

 41 43  0  0  0  0  0  0  0  0999 V2000
   -1.3286  -17.9596   27.7655 C   0  0  0  0  0  0  0  0  0  0  0  0
   -2.6020  -17.3970   26.6021 C   0  0  0  0  0  0  0  0  0  0  0  0
   -2.6151  -18.6210   26.1828 N   0  0  0  0  0  0  0  0  0  0  0  0
   -2.5074  -16.6350   26.2425 C   0  0  0  0  0  0  0  0  0  0  0  0
   -1.9527  -15.0804   24.9390 C   0  0  0  0  0  0  0  0  0  0  0  0
   -0.2708  -14.3068   24.2917 N   0  0  0  0  0  0  0  0  0  0  0  0
    1.1818  -13.5826   25.2384 C   0  0  0  0  0  0  0  0  0  0  0  0
    1.2315  -13.4089   26.4315 O   0  0  0  0  0  0  0  0  0  0  0  0
    2.8962  -13.2012   24.2942 C   0  0  0  0  0  0  0  0  0  0  0  0
    3.2593  -12.1318   23.1317 C   0  0  0  0  0  0  0  0  0  0  0  0
    4.3703  -11.2869   22.6689 N   0  0  0  0  0  0  0  0  0  0  0  0
    5.7890  -11.3349   23.7934 C   0  0  0  0  0  0  0  0  0  0  0  0
    7.0858  -11.0696   23.7417 N   0  0  0  0  0  0  0  0  0  0  0  0
    7.6681  -11.5863   24.8950 C   0  0  0  0  0  0  0  0  0  0  0  0
    6.8461  -12.3789   25.6919 C   0  0  0  0  0  0  0  0  0  0  0  0
    5.5801  -12.3676   25.1238 N   0  0  0  0  0  0  0  0  0  0  0  0
    4.1941  -13.6146   25.0209 C   0  0  0  0  0  0  0  0  0  0  0  0
   -3.5999  -19.7577   26.8366 C   0  0  0  0  0  0  0  0  0  0  0  0
   -4.4543  -19.6939   27.6109 O   0  0  0  0  0  0  0  0  0  0  0  0
   -3.2665  -21.1168   26.4287 C   0  0  0  0  0  0  0  0  0  0  0  0
   -4.0327  -22.2647   26.7881 C   0  0  0  0  0  0  0  0  0  0  0  0
   -3.4622  -23.4118   26.4263 N   0  0  0  0  0  0  0  0  0  0  0  0
   -2.3623  -23.0073   25.7785 N   0  0  0  0  0  0  0  0  0  0  0  0
   -2.1958  -21.6482   25.7546 C   0  0  0  0  0  0  0  0  0  0  0  0
   -1.0624  -17.1575   28.4653 H   0  0  0  0  0  0  0  0  0  0  0  0
   -1.6742  -18.8230   28.3517 H   0  0  0  0  0  0  0  0  0  0  0  0
   -0.4378  -18.2634   27.2014 H   0  0  0  0  0  0  0  0  0  0  0  0
   -3.0607  -17.3098   27.8112 H   0  0  0  0  0  0  0  0  0  0  0  0
   -3.8143  -17.6417   26.7969 H   0  0  0  0  0  0  0  0  0  0  0  0
   -3.3472  -16.3472   25.4574 H   0  0  0  0  0  0  0  0  0  0  0  0
   -2.1738  -15.8643   27.2822 H   0  0  0  0  0  0  0  0  0  0  0  0
   -2.7819  -15.1464   24.2119 H   0  0  0  0  0  0  0  0  0  0  0  0
   -1.6162  -15.7416   24.2264 H   0  0  0  0  0  0  0  0  0  0  0  0
   -0.0876  -14.2606   23.3003 H   0  0  0  0  0  0  0  0  0  0  0  0
    2.2707  -11.8354   22.8770 H   0  0  0  0  0  0  0  0  0  0  0  0
    8.7231  -11.4091   25.0694 H   0  0  0  0  0  0  0  0  0  0  0  0
    7.0518  -12.9814   26.5629 H   0  0  0  0  0  0  0  0  0  0  0  0
    4.3144  -14.3237   25.8400 H   0  0  0  0  0  0  0  0  0  0  0  0
   -4.9732  -22.2934   27.3182 H   0  0  0  0  0  0  0  0  0  0  0  0
   -1.7563  -23.7167   25.3799 H   0  0  0  0  0  0  0  0  0  0  0  0
   -1.3275  -21.1983   25.2983 H   0  0  0  0  0  0  0  0  0  0  0  0
  1  2  1  0
  2  3  1  0
  3  4  1  0
  4  5  1  0
  5  6  1  0
  6  7  1  0
  7  8  2  0
  7  9  1  0
  9 10  1  0
 10 11  2  0
 11 12  1  0
 12 13  2  0
 13 14  1  0
 14 15  2  0
 15 16  1  0
 16 17  1  0
  3 18  1  0
 18 19  2  0
 18 20  1  0
 20 21  1  0
 21 22  2  0
 22 23  1  0
 23 24  1  0
 17  9  2  0
 24 20  2  0
 16 12  1  0
  1 25  1  0
  1 26  1  0
  1 27  1  0
  2 28  1  0
  2 29  1  0
  4 30  1  0
  4 31  1  0
  5 32  1  0
  5 33  1  0
  6 34  1  0
 10 35  1  0
 14 36  1  0
 15 37  1  0
 17 38  1  0
 21 39  1  0
 23 40  1  0
 24 41  1  0
M  END
>  <Energy>  (1108) 
1374.8390686713924

>  <compound_id>  (1108) 
25675

>  <target_id>  (1108) 
1

>  <reference_id>  (1108) 
123

>  <inspiration_ids>  (1108) 
[106, 123]

>  <energy_score>  (1108) 
1325.7956126190336

>  <distance_score>  (1108) 
14.091116612261242

>  <path>  (1108) 
/opt/xchem-fragalysis-2/maxwin/BulkDock/SCRATCH/511017/C25675-P123/C25675-P123.minimised.mol

>  <scratch_subdir>  (1108) 
/opt/xchem-fragalysis-2/maxwin/BulkDock/SCRATCH/511017/C25675-P123

>  <fragmenstein_runtime>  (1108) 
49.74725103378296

>  <fragmenstein_outcome>  (1108) 
too moved

>  <fragmenstein_mode>  (1108) 
expansion

>  <fragmenstein_error>  (1108) 


$$$$
C7354-P70
     RDKit          3D

 52 53  0  0  0  0  0  0  0  0999 V2000
   -4.1514    1.1819   17.2795 C   0  0  0  0  0  0  0  0  0  0  0  0
   -5.4283    1.6496   17.0867 C   0  0  0  0  0  0  0  0  0  0  0  0
   -6.1983    2.1795   17.8739 O   0  0  0  0  0  0  0  0  0  0  0  0
   -5.5876    1.3414   15.1718 N   0  0  0  0  0  0  0  0  0  0  0  0
   -6.9765    1.9218   13.8559 C   0  0  0  0  0  0  0  0  0  0  0  0
   -6.4068    0.7550   12.3938 C   0  0  0  0  0  0  0  0  0  0  0  0
   -7.3551    0.6968   10.7895 C   0  0  0  0  0  0  0  0  0  0  0  0
   -6.8310    0.7065    9.2729 C   0  0  0  0  0  0  0  0  0  0  0  0
   -5.4578    0.2024    8.8179 C   0  0  0  0  0  0  0  0  0  0  0  0
   -7.8844    0.0974    8.3331 C   0  0  0  0  0  0  0  0  0  0  0  0
   -8.2215    3.5610   13.2815 C   0  0  0  0  0  0  0  0  0  0  0  0
   -7.8709    4.5845   13.8301 O   0  0  0  0  0  0  0  0  0  0  0  0
   -9.3319    3.4193   12.1905 N   0  0  0  0  0  0  0  0  0  0  0  0
  -10.1419    4.4499   11.4762 C   0  0  0  0  0  0  0  0  0  0  0  0
  -11.2467    3.7803   10.6867 C   0  0  0  0  0  0  0  0  0  0  0  0
  -11.5741    2.6721   11.6443 C   0  0  0  0  0  0  0  0  0  0  0  0
  -12.9648    2.3781   11.7867 N   0  0  0  0  0  0  0  0  0  0  0  0
  -14.0839    3.2321   11.9989 C   0  0  0  0  0  0  0  0  0  0  0  0
  -14.1419    4.4084   12.1918 O   0  0  0  0  0  0  0  0  0  0  0  0
  -15.3170    2.4625   11.8453 C   0  0  0  0  0  0  0  0  0  0  0  0
  -15.6473    1.1691   12.3104 C   0  0  0  0  0  0  0  0  0  0  0  0
  -16.8513    0.7623   11.9026 N   0  0  0  0  0  0  0  0  0  0  0  0
  -17.3076    1.8039   11.1882 N   0  0  0  0  0  0  0  0  0  0  0  0
  -16.4381    2.8516   11.1406 C   0  0  0  0  0  0  0  0  0  0  0  0
  -10.7597    3.1327   12.8537 C   0  0  0  0  0  0  0  0  0  0  0  0
   -3.8632    0.9826   16.3098 H   0  0  0  0  0  0  0  0  0  0  0  0
   -4.0458    0.1860   17.5770 H   0  0  0  0  0  0  0  0  0  0  0  0
   -3.5049    1.9954   17.6322 H   0  0  0  0  0  0  0  0  0  0  0  0
   -4.7868    0.9747   14.8026 H   0  0  0  0  0  0  0  0  0  0  0  0
   -6.1820    2.6006   13.8098 H   0  0  0  0  0  0  0  0  0  0  0  0
   -5.4203    0.3678   12.1901 H   0  0  0  0  0  0  0  0  0  0  0  0
   -6.6076   -0.0656   13.0253 H   0  0  0  0  0  0  0  0  0  0  0  0
   -8.2329    0.0960   10.9314 H   0  0  0  0  0  0  0  0  0  0  0  0
   -7.9715    1.6020   10.7612 H   0  0  0  0  0  0  0  0  0  0  0  0
   -6.8305    1.7703    8.9943 H   0  0  0  0  0  0  0  0  0  0  0  0
   -4.6566    0.3465    9.5388 H   0  0  0  0  0  0  0  0  0  0  0  0
   -5.4852   -0.8410    8.5124 H   0  0  0  0  0  0  0  0  0  0  0  0
   -5.1611    0.7509    7.9156 H   0  0  0  0  0  0  0  0  0  0  0  0
   -7.6444    0.3137    7.2860 H   0  0  0  0  0  0  0  0  0  0  0  0
   -8.8756    0.5171    8.5363 H   0  0  0  0  0  0  0  0  0  0  0  0
   -7.9456   -0.9887    8.4431 H   0  0  0  0  0  0  0  0  0  0  0  0
   -9.4484    4.9209   10.7669 H   0  0  0  0  0  0  0  0  0  0  0  0
  -10.4428    5.2931   12.1185 H   0  0  0  0  0  0  0  0  0  0  0  0
  -10.8803    3.3778    9.7357 H   0  0  0  0  0  0  0  0  0  0  0  0
  -12.0602    4.4789   10.4739 H   0  0  0  0  0  0  0  0  0  0  0  0
  -11.1330    1.7428   11.2606 H   0  0  0  0  0  0  0  0  0  0  0  0
  -13.2973    1.4456   11.5731 H   0  0  0  0  0  0  0  0  0  0  0  0
  -15.0557    0.5071   12.9279 H   0  0  0  0  0  0  0  0  0  0  0  0
  -18.2274    1.7335   10.7656 H   0  0  0  0  0  0  0  0  0  0  0  0
  -16.6685    3.7603   10.6023 H   0  0  0  0  0  0  0  0  0  0  0  0
  -10.8032    2.3627   13.6279 H   0  0  0  0  0  0  0  0  0  0  0  0
  -11.1484    4.0111   13.3930 H   0  0  0  0  0  0  0  0  0  0  0  0
  1  2  1  0
  2  3  2  0
  2  4  1  0
  4  5  1  0
  5  6  1  0
  6  7  1  0
  7  8  1  0
  8  9  1  0
  8 10  1  0
  5 11  1  0
 11 12  2  0
 11 13  1  0
 13 14  1  0
 14 15  1  0
 15 16  1  0
 16 17  1  0
 17 18  1  0
 18 19  2  0
 18 20  1  0
 20 21  1  0
 21 22  2  0
 22 23  1  0
 23 24  1  0
 16 25  1  0
 25 13  1  0
 24 20  2  0
  1 26  1  0
  1 27  1  0
  1 28  1  0
  4 29  1  0
  5 30  1  0
  6 31  1  0
  6 32  1  0
  7 33  1  0
  7 34  1  0
  8 35  1  0
  9 36  1  0
  9 37  1  0
  9 38  1  0
 10 39  1  0
 10 40  1  0
 10 41  1  0
 14 42  1  0
 14 43  1  0
 15 44  1  0
 15 45  1  0
 16 46  1  0
 17 47  1  0
 21 48  1  0
 23 49  1  0
 24 50  1  0
 25 51  1  0
 25 52  1  0
M  END
>  <Energy>  (1109) 
507.40466474904269

>  <compound_id>  (1109) 
7354

>  <target_id>  (1109) 
1

>  <reference_id>  (1109) 
70

>  <inspiration_ids>  (1109) 
[70, 127]

>  <energy_score>  (1109) 
442.4484990532371

>  <distance_score>  (1109) 
5.841922331716251

>  <path>  (1109) 
/opt/xchem-fragalysis-2/maxwin/BulkDock/SCRATCH/511017/C7354-P70/C7354-P70.minimised.mol

>  <scratch_subdir>  (1109) 
/opt/xchem-fragalysis-2/maxwin/BulkDock/SCRATCH/511017/C7354-P70

>  <fragmenstein_runtime>  (1109) 
40.078739643096924

>  <fragmenstein_outcome>  (1109) 
too moved

>  <fragmenstein_mode>  (1109) 
expansion

>  <fragmenstein_error>  (1109) 


$$$$
C7354-P127
     RDKit          3D

 52 53  0  0  0  0  0  0  0  0999 V2000
   -4.1022    1.3330   17.4652 C   0  0  0  0  0  0  0  0  0  0  0  0
   -5.4005    1.3024   16.9943 C   0  0  0  0  0  0  0  0  0  0  0  0
   -6.3504    1.6240   17.7260 O   0  0  0  0  0  0  0  0  0  0  0  0
   -5.3624    0.8459   15.1019 N   0  0  0  0  0  0  0  0  0  0  0  0
   -6.7363    0.8947   13.7215 C   0  0  0  0  0  0  0  0  0  0  0  0
   -7.0104   -0.3996   12.2509 C   0  0  0  0  0  0  0  0  0  0  0  0
   -6.4829   -0.3789   10.1397 C   0  0  0  0  0  0  0  0  0  0  0  0
   -6.3645   -1.1721    8.5410 C   0  0  0  0  0  0  0  0  0  0  0  0
   -4.8955   -1.3599    7.9957 C   0  0  0  0  0  0  0  0  0  0  0  0
   -7.3477   -2.1252    7.8265 C   0  0  0  0  0  0  0  0  0  0  0  0
   -6.6903    0.3862   12.1035 C   0  0  0  0  0  0  0  0  0  0  0  0
   -5.3225   -0.2555   11.7995 O   0  0  0  0  0  0  0  0  0  0  0  0
   -8.3349    0.5620   11.0275 N   0  0  0  0  0  0  0  0  0  0  0  0
   -8.7366   -0.0816    9.4680 C   0  0  0  0  0  0  0  0  0  0  0  0
  -10.2384    0.1302    9.3116 C   0  0  0  0  0  0  0  0  0  0  0  0
  -10.3116    1.5023    9.8363 C   0  0  0  0  0  0  0  0  0  0  0  0
  -11.2522    2.2956    9.1214 N   0  0  0  0  0  0  0  0  0  0  0  0
  -11.2378    2.7858    7.7896 C   0  0  0  0  0  0  0  0  0  0  0  0
  -10.3954    2.7277    6.9467 O   0  0  0  0  0  0  0  0  0  0  0  0
  -12.5510    3.3589    7.4598 C   0  0  0  0  0  0  0  0  0  0  0  0
  -13.5899    3.8634    8.2846 C   0  0  0  0  0  0  0  0  0  0  0  0
  -14.6964    4.1686    7.6036 N   0  0  0  0  0  0  0  0  0  0  0  0
  -14.3531    3.9273    6.3299 N   0  0  0  0  0  0  0  0  0  0  0  0
  -13.0897    3.4411    6.1902 C   0  0  0  0  0  0  0  0  0  0  0  0
   -8.8044    1.8239    9.9788 C   0  0  0  0  0  0  0  0  0  0  0  0
   -3.2120    1.8385   17.1323 H   0  0  0  0  0  0  0  0  0  0  0  0
   -4.3557    1.9828   18.3205 H   0  0  0  0  0  0  0  0  0  0  0  0
   -4.0025    0.2782   17.3695 H   0  0  0  0  0  0  0  0  0  0  0  0
   -4.4336    0.7148   14.7744 H   0  0  0  0  0  0  0  0  0  0  0  0
   -7.2664    1.7923   13.7228 H   0  0  0  0  0  0  0  0  0  0  0  0
   -7.9589   -0.9174   12.5339 H   0  0  0  0  0  0  0  0  0  0  0  0
   -6.1854   -0.7813   13.2920 H   0  0  0  0  0  0  0  0  0  0  0  0
   -5.3744   -0.2730    9.8950 H   0  0  0  0  0  0  0  0  0  0  0  0
   -6.7837    0.5847    9.7109 H   0  0  0  0  0  0  0  0  0  0  0  0
   -6.5610   -0.2682    7.9349 H   0  0  0  0  0  0  0  0  0  0  0  0
   -4.1248   -1.3031    8.7685 H   0  0  0  0  0  0  0  0  0  0  0  0
   -4.7710   -2.3104    7.4671 H   0  0  0  0  0  0  0  0  0  0  0  0
   -4.6590   -0.5706    7.2705 H   0  0  0  0  0  0  0  0  0  0  0  0
   -6.8350   -2.7594    7.0943 H   0  0  0  0  0  0  0  0  0  0  0  0
   -8.0909   -1.5627    7.2476 H   0  0  0  0  0  0  0  0  0  0  0  0
   -7.9025   -2.7974    8.4778 H   0  0  0  0  0  0  0  0  0  0  0  0
   -8.2470    0.3171    8.5724 H   0  0  0  0  0  0  0  0  0  0  0  0
   -8.8094   -1.1572    9.4004 H   0  0  0  0  0  0  0  0  0  0  0  0
  -10.8201   -0.5605    9.9337 H   0  0  0  0  0  0  0  0  0  0  0  0
  -10.5477    0.0027    8.2688 H   0  0  0  0  0  0  0  0  0  0  0  0
  -10.7344    1.4634   10.8510 H   0  0  0  0  0  0  0  0  0  0  0  0
  -12.1658    2.4532    9.5195 H   0  0  0  0  0  0  0  0  0  0  0  0
  -13.6015    4.0068    9.3578 H   0  0  0  0  0  0  0  0  0  0  0  0
  -15.0320    4.1253    5.6027 H   0  0  0  0  0  0  0  0  0  0  0  0
  -12.6841    3.1759    5.2233 H   0  0  0  0  0  0  0  0  0  0  0  0
   -8.9716    2.7563   10.5358 H   0  0  0  0  0  0  0  0  0  0  0  0
   -8.1973    2.0639    9.0899 H   0  0  0  0  0  0  0  0  0  0  0  0
  1  2  1  0
  2  3  2  0
  2  4  1  0
  4  5  1  0
  5  6  1  0
  6  7  1  0
  7  8  1  0
  8  9  1  0
  8 10  1  0
  5 11  1  0
 11 12  2  0
 11 13  1  0
 13 14  1  0
 14 15  1  0
 15 16  1  0
 16 17  1  0
 17 18  1  0
 18 19  2  0
 18 20  1  0
 20 21  1  0
 21 22  2  0
 22 23  1  0
 23 24  1  0
 16 25  1  0
 25 13  1  0
 24 20  2  0
  1 26  1  0
  1 27  1  0
  1 28  1  0
  4 29  1  0
  5 30  1  0
  6 31  1  0
  6 32  1  0
  7 33  1  0
  7 34  1  0
  8 35  1  0
  9 36  1  0
  9 37  1  0
  9 38  1  0
 10 39  1  0
 10 40  1  0
 10 41  1  0
 14 42  1  0
 14 43  1  0
 15 44  1  0
 15 45  1  0
 16 46  1  0
 17 47  1  0
 21 48  1  0
 23 49  1  0
 24 50  1  0
 25 51  1  0
 25 52  1  0
M  END
>  <Energy>  (1110) 
1268.1832393436239

>  <compound_id>  (1110) 
7354

>  <target_id>  (1110) 
1

>  <reference_id>  (1110) 
127

>  <inspiration_ids>  (1110) 
[70, 127]

>  <energy_score>  (1110) 
1203.2270736478106

>  <distance_score>  (1110) 
4.815138290436498

>  <path>  (1110) 
/opt/xchem-fragalysis-2/maxwin/BulkDock/SCRATCH/511017/C7354-P127/C7354-P127.minimised.mol

>  <scratch_subdir>  (1110) 
/opt/xchem-fragalysis-2/maxwin/BulkDock/SCRATCH/511017/C7354-P127

>  <fragmenstein_runtime>  (1110) 
39.13763165473938

>  <fragmenstein_outcome>  (1110) 
too moved

>  <fragmenstein_mode>  (1110) 
expansion

>  <fragmenstein_error>  (1110) 


$$$$
C7377-P70
     RDKit          3D

 54 55  0  0  0  0  0  0  0  0999 V2000
   -3.7938   -0.6005    7.6173 C   0  0  0  0  0  0  0  0  0  0  0  0
   -4.8972    0.1247    8.3853 C   0  0  0  0  0  0  0  0  0  0  0  0
   -6.1490   -0.6217    8.4685 N   0  0  0  0  0  0  0  0  0  0  0  0
   -6.6565   -1.0269    7.1506 C   0  0  0  0  0  0  0  0  0  0  0  0
   -8.0565   -1.5006    7.4594 C   0  0  0  0  0  0  0  0  0  0  0  0
   -8.5285   -0.4769    8.4738 C   0  0  0  0  0  0  0  0  0  0  0  0
   -7.2491    0.0741    9.1865 C   0  0  0  0  0  0  0  0  0  0  0  0
   -7.3542    0.1565   10.9069 C   0  0  0  0  0  0  0  0  0  0  0  0
   -7.3544    1.4796   11.1450 N   0  0  0  0  0  0  0  0  0  0  0  0
   -6.4247    0.9129   12.9164 C   0  0  0  0  0  0  0  0  0  0  0  0
   -5.8495    0.7670   14.9310 C   0  0  0  0  0  0  0  0  0  0  0  0
   -5.5160    1.5010   16.8594 N   0  0  0  0  0  0  0  0  0  0  0  0
   -6.6967    1.4327   18.0614 C   0  0  0  0  0  0  0  0  0  0  0  0
   -4.7517    2.3012   17.8159 C   0  0  0  0  0  0  0  0  0  0  0  0
   -8.8993    2.0980   10.8763 C   0  0  0  0  0  0  0  0  0  0  0  0
   -9.8349    2.2512   11.6438 O   0  0  0  0  0  0  0  0  0  0  0  0
   -9.1084    2.6464    9.4499 C   0  0  0  0  0  0  0  0  0  0  0  0
  -10.5860    3.0145    9.1745 C   0  0  0  0  0  0  0  0  0  0  0  0
  -11.5855    1.8994    9.2735 C   0  0  0  0  0  0  0  0  0  0  0  0
  -12.4443    1.6185   10.3686 C   0  0  0  0  0  0  0  0  0  0  0  0
  -13.2529    0.5805   10.1485 N   0  0  0  0  0  0  0  0  0  0  0  0
  -12.8965    0.1627    8.9225 N   0  0  0  0  0  0  0  0  0  0  0  0
  -11.9283    0.9386    8.3457 C   0  0  0  0  0  0  0  0  0  0  0  0
   -2.8234   -0.1671    7.8706 H   0  0  0  0  0  0  0  0  0  0  0  0
   -3.9410   -0.5100    6.5363 H   0  0  0  0  0  0  0  0  0  0  0  0
   -3.7324   -1.6629    7.8549 H   0  0  0  0  0  0  0  0  0  0  0  0
   -5.0733    1.1030    7.9280 H   0  0  0  0  0  0  0  0  0  0  0  0
   -4.5258    0.3065    9.3941 H   0  0  0  0  0  0  0  0  0  0  0  0
   -6.0665   -1.8334    6.7041 H   0  0  0  0  0  0  0  0  0  0  0  0
   -6.6859   -0.1787    6.4548 H   0  0  0  0  0  0  0  0  0  0  0  0
   -8.0633   -2.5061    7.8921 H   0  0  0  0  0  0  0  0  0  0  0  0
   -8.6919   -1.5206    6.5683 H   0  0  0  0  0  0  0  0  0  0  0  0
   -9.3025   -0.8766    9.1298 H   0  0  0  0  0  0  0  0  0  0  0  0
   -9.0099    0.3036    7.8806 H   0  0  0  0  0  0  0  0  0  0  0  0
   -7.1232    1.1091    8.8559 H   0  0  0  0  0  0  0  0  0  0  0  0
   -8.3639   -0.0662   11.2217 H   0  0  0  0  0  0  0  0  0  0  0  0
   -6.4949   -0.0760   11.3669 H   0  0  0  0  0  0  0  0  0  0  0  0
   -6.7741   -0.0535   13.0665 H   0  0  0  0  0  0  0  0  0  0  0  0
   -6.8414    1.8049   13.4001 H   0  0  0  0  0  0  0  0  0  0  0  0
   -4.8956    1.1623   15.1067 H   0  0  0  0  0  0  0  0  0  0  0  0
   -5.8944   -0.3326   14.9667 H   0  0  0  0  0  0  0  0  0  0  0  0
   -6.2376    0.9534   18.9075 H   0  0  0  0  0  0  0  0  0  0  0  0
   -7.6070    0.8983   17.8718 H   0  0  0  0  0  0  0  0  0  0  0  0
   -6.8613    2.4100   18.5036 H   0  0  0  0  0  0  0  0  0  0  0  0
   -3.6749    2.2430   17.6477 H   0  0  0  0  0  0  0  0  0  0  0  0
   -4.8979    2.2414   18.9057 H   0  0  0  0  0  0  0  0  0  0  0  0
   -5.3023    3.2534   17.8725 H   0  0  0  0  0  0  0  0  0  0  0  0
   -8.7795    2.0006    8.6619 H   0  0  0  0  0  0  0  0  0  0  0  0
   -8.5222    3.5666    9.3540 H   0  0  0  0  0  0  0  0  0  0  0  0
  -10.6481    3.4434    8.1656 H   0  0  0  0  0  0  0  0  0  0  0  0
  -10.8878    3.8197    9.8577 H   0  0  0  0  0  0  0  0  0  0  0  0
  -12.5032    2.1381   11.3174 H   0  0  0  0  0  0  0  0  0  0  0  0
  -13.3561   -0.6586    8.5413 H   0  0  0  0  0  0  0  0  0  0  0  0
  -11.5677    0.7227    7.3505 H   0  0  0  0  0  0  0  0  0  0  0  0
  1  2  1  0
  2  3  1  0
  3  4  1  0
  4  5  1  0
  5  6  1  0
  6  7  1  0
  7  8  1  0
  8  9  1  0
  9 10  1  0
 10 11  1  0
 11 12  1  0
 12 13  1  0
 12 14  1  0
  9 15  1  0
 15 16  2  0
 15 17  1  0
 17 18  1  0
 18 19  1  0
 19 20  1  0
 20 21  2  0
 21 22  1  0
 22 23  1  0
  7  3  1  0
 23 19  2  0
  1 24  1  0
  1 25  1  0
  1 26  1  0
  2 27  1  0
  2 28  1  0
  4 29  1  0
  4 30  1  0
  5 31  1  0
  5 32  1  0
  6 33  1  0
  6 34  1  0
  7 35  1  0
  8 36  1  0
  8 37  1  0
 10 38  1  0
 10 39  1  0
 11 40  1  0
 11 41  1  0
 13 42  1  0
 13 43  1  0
 13 44  1  0
 14 45  1  0
 14 46  1  0
 14 47  1  0
 17 48  1  0
 17 49  1  0
 18 50  1  0
 18 51  1  0
 20 52  1  0
 22 53  1  0
 23 54  1  0
M  END
>  <Energy>  (1111) 
719.77072437887227

>  <compound_id>  (1111) 
7377

>  <target_id>  (1111) 
1

>  <reference_id>  (1111) 
70

>  <inspiration_ids>  (1111) 
[70, 127]

>  <energy_score>  (1111) 
631.7950919786621

>  <distance_score>  (1111) 
5.339249646558492

>  <path>  (1111) 
/opt/xchem-fragalysis-2/maxwin/BulkDock/SCRATCH/511017/C7377-P70/C7377-P70.minimised.mol

>  <scratch_subdir>  (1111) 
/opt/xchem-fragalysis-2/maxwin/BulkDock/SCRATCH/511017/C7377-P70

>  <fragmenstein_runtime>  (1111) 
223.18939995765686

>  <fragmenstein_outcome>  (1111) 
too moved

>  <fragmenstein_mode>  (1111) 
expansion

>  <fragmenstein_error>  (1111) 


$$$$
C7377-P127
     RDKit          3D

 54 55  0  0  0  0  0  0  0  0999 V2000
   -5.3300   -0.9643    7.2874 C   0  0  0  0  0  0  0  0  0  0  0  0
   -5.7843   -0.0419    8.4219 C   0  0  0  0  0  0  0  0  0  0  0  0
   -7.1159   -0.3511    8.9545 N   0  0  0  0  0  0  0  0  0  0  0  0
   -8.1294   -0.1956    7.8951 C   0  0  0  0  0  0  0  0  0  0  0  0
   -9.4485   -0.3357    8.6092 C   0  0  0  0  0  0  0  0  0  0  0  0
   -9.2242    0.2010   10.0162 C   0  0  0  0  0  0  0  0  0  0  0  0
   -7.6929    0.4373   10.1874 C   0  0  0  0  0  0  0  0  0  0  0  0
   -7.0869    0.2483   12.0246 C   0  0  0  0  0  0  0  0  0  0  0  0
   -6.9861    1.7990   13.1772 N   0  0  0  0  0  0  0  0  0  0  0  0
   -6.4282    0.5758   14.3490 C   0  0  0  0  0  0  0  0  0  0  0  0
   -4.9437    0.5558   15.6546 C   0  0  0  0  0  0  0  0  0  0  0  0
   -4.3126    0.4129   17.3722 N   0  0  0  0  0  0  0  0  0  0  0  0
   -3.5429   -1.1240   18.2966 C   0  0  0  0  0  0  0  0  0  0  0  0
   -5.4741    1.4040   18.3186 C   0  0  0  0  0  0  0  0  0  0  0  0
   -8.6427    2.8402   13.0703 C   0  0  0  0  0  0  0  0  0  0  0  0
   -9.6944    2.7792   13.7579 O   0  0  0  0  0  0  0  0  0  0  0  0
   -8.7495    4.1077   12.0314 C   0  0  0  0  0  0  0  0  0  0  0  0
   -9.6515    3.9938   10.7666 C   0  0  0  0  0  0  0  0  0  0  0  0
  -11.0241    3.3737   10.8379 C   0  0  0  0  0  0  0  0  0  0  0  0
  -11.9459    3.2407   11.9057 C   0  0  0  0  0  0  0  0  0  0  0  0
  -13.0780    2.6216   11.5501 N   0  0  0  0  0  0  0  0  0  0  0  0
  -12.8949    2.3461   10.2547 N   0  0  0  0  0  0  0  0  0  0  0  0
  -11.7120    2.8171    9.7701 C   0  0  0  0  0  0  0  0  0  0  0  0
   -5.4463   -2.0182    7.5529 H   0  0  0  0  0  0  0  0  0  0  0  0
   -4.2716   -0.7880    7.0661 H   0  0  0  0  0  0  0  0  0  0  0  0
   -5.8904   -0.7776    6.3661 H   0  0  0  0  0  0  0  0  0  0  0  0
   -5.7455    0.9856    8.0456 H   0  0  0  0  0  0  0  0  0  0  0  0
   -5.0258   -0.1623    9.1952 H   0  0  0  0  0  0  0  0  0  0  0  0
   -8.0429   -0.9584    7.1151 H   0  0  0  0  0  0  0  0  0  0  0  0
   -8.0637    0.7947    7.4269 H   0  0  0  0  0  0  0  0  0  0  0  0
   -9.7258   -1.3940    8.6628 H   0  0  0  0  0  0  0  0  0  0  0  0
  -10.2565    0.1923    8.0938 H   0  0  0  0  0  0  0  0  0  0  0  0
   -9.6706   -0.5139   10.6986 H   0  0  0  0  0  0  0  0  0  0  0  0
   -9.7500    1.1389   10.1576 H   0  0  0  0  0  0  0  0  0  0  0  0
   -7.6098    1.4208    9.7465 H   0  0  0  0  0  0  0  0  0  0  0  0
   -6.1055   -0.2015   12.0379 H   0  0  0  0  0  0  0  0  0  0  0  0
   -7.6795   -0.5427   12.4270 H   0  0  0  0  0  0  0  0  0  0  0  0
   -6.0775   -0.3509   13.8750 H   0  0  0  0  0  0  0  0  0  0  0  0
   -5.9248    1.4932   14.2504 H   0  0  0  0  0  0  0  0  0  0  0  0
   -3.8397    0.8165   14.9108 H   0  0  0  0  0  0  0  0  0  0  0  0
   -5.1633    1.2707   16.4867 H   0  0  0  0  0  0  0  0  0  0  0  0
   -4.0090   -1.2238   19.2667 H   0  0  0  0  0  0  0  0  0  0  0  0
   -3.8739   -2.1489   18.5437 H   0  0  0  0  0  0  0  0  0  0  0  0
   -2.5009   -1.3954   18.1143 H   0  0  0  0  0  0  0  0  0  0  0  0
   -5.4570    2.4085   17.8945 H   0  0  0  0  0  0  0  0  0  0  0  0
   -5.2658    1.6550   19.3672 H   0  0  0  0  0  0  0  0  0  0  0  0
   -6.4690    0.9659   18.2521 H   0  0  0  0  0  0  0  0  0  0  0  0
   -7.8599    4.7438   11.9196 H   0  0  0  0  0  0  0  0  0  0  0  0
   -9.3250    4.8098   12.6672 H   0  0  0  0  0  0  0  0  0  0  0  0
   -9.1075    3.4931    9.9584 H   0  0  0  0  0  0  0  0  0  0  0  0
   -9.8025    5.0208   10.4031 H   0  0  0  0  0  0  0  0  0  0  0  0
  -11.8443    3.5658   12.9337 H   0  0  0  0  0  0  0  0  0  0  0  0
  -13.6252    1.8453    9.7600 H   0  0  0  0  0  0  0  0  0  0  0  0
  -11.4450    2.6899    8.7309 H   0  0  0  0  0  0  0  0  0  0  0  0
  1  2  1  0
  2  3  1  0
  3  4  1  0
  4  5  1  0
  5  6  1  0
  6  7  1  0
  7  8  1  0
  8  9  1  0
  9 10  1  0
 10 11  1  0
 11 12  1  0
 12 13  1  0
 12 14  1  0
  9 15  1  0
 15 16  2  0
 15 17  1  0
 17 18  1  0
 18 19  1  0
 19 20  1  0
 20 21  2  0
 21 22  1  0
 22 23  1  0
  7  3  1  0
 23 19  2  0
  1 24  1  0
  1 25  1  0
  1 26  1  0
  2 27  1  0
  2 28  1  0
  4 29  1  0
  4 30  1  0
  5 31  1  0
  5 32  1  0
  6 33  1  0
  6 34  1  0
  7 35  1  0
  8 36  1  0
  8 37  1  0
 10 38  1  0
 10 39  1  0
 11 40  1  0
 11 41  1  0
 13 42  1  0
 13 43  1  0
 13 44  1  0
 14 45  1  0
 14 46  1  0
 14 47  1  0
 17 48  1  0
 17 49  1  0
 18 50  1  0
 18 51  1  0
 20 52  1  0
 22 53  1  0
 23 54  1  0
M  END
>  <Energy>  (1112) 
775.25757223973744

>  <compound_id>  (1112) 
7377

>  <target_id>  (1112) 
1

>  <reference_id>  (1112) 
127

>  <inspiration_ids>  (1112) 
[70, 127]

>  <energy_score>  (1112) 
687.2819398395283

>  <distance_score>  (1112) 
5.792447495156486

>  <path>  (1112) 
/opt/xchem-fragalysis-2/maxwin/BulkDock/SCRATCH/511017/C7377-P127/C7377-P127.minimised.mol

>  <scratch_subdir>  (1112) 
/opt/xchem-fragalysis-2/maxwin/BulkDock/SCRATCH/511017/C7377-P127

>  <fragmenstein_runtime>  (1112) 
184.03770852088928

>  <fragmenstein_outcome>  (1112) 
too moved

>  <fragmenstein_mode>  (1112) 
expansion

>  <fragmenstein_error>  (1112) 


$$$$
C21455-P96
     RDKit          3D

 47 49  0  0  0  0  0  0  0  0999 V2000
    6.4511  -10.2500   24.1491 C   0  0  0  0  0  0  0  0  0  0  0  0
    7.0956   -9.4143   23.0002 C   0  0  0  0  0  0  0  0  0  0  0  0
    6.3815   -8.0633   22.9311 C   0  0  0  0  0  0  0  0  0  0  0  0
    8.6519   -9.1935   23.1975 C   0  0  0  0  0  0  0  0  0  0  0  0
    9.5189   -8.4007   22.1704 C   0  0  0  0  0  0  0  0  0  0  0  0
    9.8066   -7.0019   22.1283 C   0  0  0  0  0  0  0  0  0  0  0  0
   10.8660   -6.8209   21.2425 C   0  0  0  0  0  0  0  0  0  0  0  0
   11.6481   -5.6017   20.9837 C   0  0  0  0  0  0  0  0  0  0  0  0
   11.5359   -4.7238   21.7845 O   0  0  0  0  0  0  0  0  0  0  0  0
   12.4812   -5.7052   19.8186 N   0  0  0  0  0  0  0  0  0  0  0  0
   13.5153   -4.8195   19.3023 C   0  0  0  0  0  0  0  0  0  0  0  0
   13.0310   -3.8730   18.2246 C   0  0  0  0  0  0  0  0  0  0  0  0
   11.8681   -3.1366   18.4903 C   0  0  0  0  0  0  0  0  0  0  0  0
   11.3555   -2.2329   17.5689 C   0  0  0  0  0  0  0  0  0  0  0  0
   12.0234   -1.9934   16.3795 C   0  0  0  0  0  0  0  0  0  0  0  0
   13.2313   -2.6403   16.1083 C   0  0  0  0  0  0  0  0  0  0  0  0
   13.7288   -3.6089   17.0159 C   0  0  0  0  0  0  0  0  0  0  0  0
   15.0539   -4.2644   16.6913 C   0  0  0  0  0  0  0  0  0  0  0  0
   15.5215   -4.0463   15.2446 C   0  0  0  0  0  0  0  0  0  0  0  0
   15.3674   -2.6559   14.8300 N   0  0  0  0  0  0  0  0  0  0  0  0
   13.9529   -2.2865   14.8283 C   0  0  0  0  0  0  0  0  0  0  0  0
   11.1388   -8.0854   20.8070 N   0  0  0  0  0  0  0  0  0  0  0  0
   10.3197   -9.0358   21.2965 N   0  0  0  0  0  0  0  0  0  0  0  0
    6.5405   -9.7127   25.1002 H   0  0  0  0  0  0  0  0  0  0  0  0
    6.9688  -11.2054   24.2712 H   0  0  0  0  0  0  0  0  0  0  0  0
    5.3868  -10.4205   23.9649 H   0  0  0  0  0  0  0  0  0  0  0  0
    6.9511   -9.9296   22.0486 H   0  0  0  0  0  0  0  0  0  0  0  0
    6.5124   -7.4980   23.8603 H   0  0  0  0  0  0  0  0  0  0  0  0
    5.3076   -8.2029   22.7697 H   0  0  0  0  0  0  0  0  0  0  0  0
    6.7660   -7.4509   22.1118 H   0  0  0  0  0  0  0  0  0  0  0  0
    9.1099  -10.1883   23.2924 H   0  0  0  0  0  0  0  0  0  0  0  0
    8.8032   -8.7040   24.1698 H   0  0  0  0  0  0  0  0  0  0  0  0
    9.3777   -6.2313   22.7567 H   0  0  0  0  0  0  0  0  0  0  0  0
   12.2560   -6.5531   19.3284 H   0  0  0  0  0  0  0  0  0  0  0  0
   13.9078   -4.2298   20.1384 H   0  0  0  0  0  0  0  0  0  0  0  0
   14.3138   -5.4721   18.9427 H   0  0  0  0  0  0  0  0  0  0  0  0
   11.3443   -3.2477   19.4372 H   0  0  0  0  0  0  0  0  0  0  0  0
   10.4345   -1.6995   17.7901 H   0  0  0  0  0  0  0  0  0  0  0  0
   11.6079   -1.2679   15.6847 H   0  0  0  0  0  0  0  0  0  0  0  0
   15.8076   -3.8595   17.3783 H   0  0  0  0  0  0  0  0  0  0  0  0
   14.9842   -5.3452   16.8572 H   0  0  0  0  0  0  0  0  0  0  0  0
   14.9752   -4.7070   14.5629 H   0  0  0  0  0  0  0  0  0  0  0  0
   16.5772   -4.3306   15.1693 H   0  0  0  0  0  0  0  0  0  0  0  0
   15.7431   -2.5288   13.8924 H   0  0  0  0  0  0  0  0  0  0  0  0
   13.4412   -2.7635   13.9849 H   0  0  0  0  0  0  0  0  0  0  0  0
   13.8975   -1.2027   14.6722 H   0  0  0  0  0  0  0  0  0  0  0  0
   11.9106   -8.3951   20.2277 H   0  0  0  0  0  0  0  0  0  0  0  0
  1  2  1  0
  2  3  1  0
  2  4  1  0
  4  5  1  0
  5  6  1  0
  6  7  2  0
  7  8  1  0
  8  9  2  0
  8 10  1  0
 10 11  1  0
 11 12  1  0
 12 13  2  0
 13 14  1  0
 14 15  2  0
 15 16  1  0
 16 17  2  0
 17 18  1  0
 18 19  1  0
 19 20  1  0
 20 21  1  0
  7 22  1  0
 22 23  1  0
 23  5  2  0
 17 12  1  0
 21 16  1  0
  1 24  1  0
  1 25  1  0
  1 26  1  0
  2 27  1  0
  3 28  1  0
  3 29  1  0
  3 30  1  0
  4 31  1  0
  4 32  1  0
  6 33  1  0
 10 34  1  0
 11 35  1  0
 11 36  1  0
 13 37  1  0
 14 38  1  0
 15 39  1  0
 18 40  1  0
 18 41  1  0
 19 42  1  0
 19 43  1  0
 20 44  1  0
 21 45  1  0
 21 46  1  0
 22 47  1  0
M  END
>  <Energy>  (1113) 
20.106470978281447

>  <compound_id>  (1113) 
21455

>  <target_id>  (1113) 
1

>  <reference_id>  (1113) 
96

>  <inspiration_ids>  (1113) 
[96, 146]

>  <energy_score>  (1113) 
-13.769626271805606

>  <distance_score>  (1113) 
12.429585825342647

>  <path>  (1113) 
/opt/xchem-fragalysis-2/maxwin/BulkDock/SCRATCH/511017/C21455-P96/C21455-P96.minimised.mol

>  <scratch_subdir>  (1113) 
/opt/xchem-fragalysis-2/maxwin/BulkDock/SCRATCH/511017/C21455-P96

>  <fragmenstein_runtime>  (1113) 
14.606496572494507

>  <fragmenstein_outcome>  (1113) 
too moved

>  <fragmenstein_mode>  (1113) 
expansion

>  <fragmenstein_error>  (1113) 


$$$$
C21455-P146
     RDKit          3D

 47 49  0  0  0  0  0  0  0  0999 V2000
    4.7305  -13.5258   19.1310 C   0  0  0  0  0  0  0  0  0  0  0  0
    6.1787  -12.5562   19.1761 C   0  0  0  0  0  0  0  0  0  0  0  0
    6.1254  -12.4079   20.5329 C   0  0  0  0  0  0  0  0  0  0  0  0
    7.1898  -10.9236   18.9478 C   0  0  0  0  0  0  0  0  0  0  0  0
    8.8042  -10.7457   17.7976 C   0  0  0  0  0  0  0  0  0  0  0  0
    9.3366  -10.6096   16.3710 C   0  0  0  0  0  0  0  0  0  0  0  0
   10.7250  -10.9021   16.3238 C   0  0  0  0  0  0  0  0  0  0  0  0
   11.9031  -10.9640   15.4643 C   0  0  0  0  0  0  0  0  0  0  0  0
   11.8407  -11.5006   14.3962 O   0  0  0  0  0  0  0  0  0  0  0  0
   13.0424  -10.3758   16.1707 N   0  0  0  0  0  0  0  0  0  0  0  0
   14.4278  -10.1757   15.7544 C   0  0  0  0  0  0  0  0  0  0  0  0
   15.3107   -9.6921   16.9103 C   0  0  0  0  0  0  0  0  0  0  0  0
   15.6282  -10.6273   17.9041 C   0  0  0  0  0  0  0  0  0  0  0  0
   16.3349  -10.2587   19.0501 C   0  0  0  0  0  0  0  0  0  0  0  0
   16.6900   -8.9314   19.2652 C   0  0  0  0  0  0  0  0  0  0  0  0
   16.4046   -7.9650   18.3031 C   0  0  0  0  0  0  0  0  0  0  0  0
   15.7908   -8.3651   17.0932 C   0  0  0  0  0  0  0  0  0  0  0  0
   15.6462   -7.3043   16.0460 C   0  0  0  0  0  0  0  0  0  0  0  0
   16.5672   -6.0952   16.2563 C   0  0  0  0  0  0  0  0  0  0  0  0
   16.3435   -5.5492   17.5903 N   0  0  0  0  0  0  0  0  0  0  0  0
   16.8075   -6.5281   18.5777 C   0  0  0  0  0  0  0  0  0  0  0  0
   10.9221  -11.3804   17.5425 N   0  0  0  0  0  0  0  0  0  0  0  0
    9.9206  -11.2210   18.3360 N   0  0  0  0  0  0  0  0  0  0  0  0
    4.0381  -13.0926   18.4007 H   0  0  0  0  0  0  0  0  0  0  0  0
    4.8321  -14.5169   18.7047 H   0  0  0  0  0  0  0  0  0  0  0  0
    4.2203  -13.6754   20.0757 H   0  0  0  0  0  0  0  0  0  0  0  0
    5.6823  -12.0320   18.4414 H   0  0  0  0  0  0  0  0  0  0  0  0
    6.8827  -13.1097   20.8795 H   0  0  0  0  0  0  0  0  0  0  0  0
    5.1185  -12.5115   20.9064 H   0  0  0  0  0  0  0  0  0  0  0  0
    6.3030  -11.4179   20.8533 H   0  0  0  0  0  0  0  0  0  0  0  0
    6.2796  -10.5535   18.5549 H   0  0  0  0  0  0  0  0  0  0  0  0
    7.6069  -10.5738   19.8172 H   0  0  0  0  0  0  0  0  0  0  0  0
    8.7827  -10.3323   15.4998 H   0  0  0  0  0  0  0  0  0  0  0  0
   12.7136   -9.9325   17.0214 H   0  0  0  0  0  0  0  0  0  0  0  0
   14.8029  -11.1243   15.3546 H   0  0  0  0  0  0  0  0  0  0  0  0
   14.4365   -9.4674   14.9343 H   0  0  0  0  0  0  0  0  0  0  0  0
   15.3070  -11.6616   17.7990 H   0  0  0  0  0  0  0  0  0  0  0  0
   16.5668  -11.0080   19.8026 H   0  0  0  0  0  0  0  0  0  0  0  0
   17.1966   -8.6589   20.1875 H   0  0  0  0  0  0  0  0  0  0  0  0
   15.8879   -7.7514   15.0812 H   0  0  0  0  0  0  0  0  0  0  0  0
   14.6063   -6.9852   16.0932 H   0  0  0  0  0  0  0  0  0  0  0  0
   16.3651   -5.3135   15.5232 H   0  0  0  0  0  0  0  0  0  0  0  0
   17.6199   -6.3782   16.1227 H   0  0  0  0  0  0  0  0  0  0  0  0
   16.8785   -4.6917   17.7095 H   0  0  0  0  0  0  0  0  0  0  0  0
   16.4128   -6.2302   19.5560 H   0  0  0  0  0  0  0  0  0  0  0  0
   17.9030   -6.4869   18.6347 H   0  0  0  0  0  0  0  0  0  0  0  0
   11.7580  -11.8128   17.9243 H   0  0  0  0  0  0  0  0  0  0  0  0
  1  2  1  0
  2  3  1  0
  2  4  1  0
  4  5  1  0
  5  6  1  0
  6  7  2  0
  7  8  1  0
  8  9  2  0
  8 10  1  0
 10 11  1  0
 11 12  1  0
 12 13  2  0
 13 14  1  0
 14 15  2  0
 15 16  1  0
 16 17  2  0
 17 18  1  0
 18 19  1  0
 19 20  1  0
 20 21  1  0
  7 22  1  0
 22 23  1  0
 23  5  2  0
 17 12  1  0
 21 16  1  0
  1 24  1  0
  1 25  1  0
  1 26  1  0
  2 27  1  0
  3 28  1  0
  3 29  1  0
  3 30  1  0
  4 31  1  0
  4 32  1  0
  6 33  1  0
 10 34  1  0
 11 35  1  0
 11 36  1  0
 13 37  1  0
 14 38  1  0
 15 39  1  0
 18 40  1  0
 18 41  1  0
 19 42  1  0
 19 43  1  0
 20 44  1  0
 21 45  1  0
 21 46  1  0
 22 47  1  0
M  END
>  <Energy>  (1114) 
293.67995849037936

>  <compound_id>  (1114) 
21455

>  <target_id>  (1114) 
1

>  <reference_id>  (1114) 
146

>  <inspiration_ids>  (1114) 
[96, 146]

>  <energy_score>  (1114) 
259.8038612402904

>  <distance_score>  (1114) 
13.004867612120933

>  <path>  (1114) 
/opt/xchem-fragalysis-2/maxwin/BulkDock/SCRATCH/511017/C21455-P146/C21455-P146.minimised.mol

>  <scratch_subdir>  (1114) 
/opt/xchem-fragalysis-2/maxwin/BulkDock/SCRATCH/511017/C21455-P146

>  <fragmenstein_runtime>  (1114) 
17.165078163146973

>  <fragmenstein_outcome>  (1114) 
too moved

>  <fragmenstein_mode>  (1114) 
expansion

>  <fragmenstein_error>  (1114) 


$$$$
C21455-P96
     RDKit          3D

 47 49  0  0  0  0  0  0  0  0999 V2000
    6.4511  -10.2500   24.1491 C   0  0  0  0  0  0  0  0  0  0  0  0
    7.0956   -9.4143   23.0002 C   0  0  0  0  0  0  0  0  0  0  0  0
    6.3815   -8.0633   22.9311 C   0  0  0  0  0  0  0  0  0  0  0  0
    8.6519   -9.1935   23.1975 C   0  0  0  0  0  0  0  0  0  0  0  0
    9.5189   -8.4007   22.1704 C   0  0  0  0  0  0  0  0  0  0  0  0
    9.8066   -7.0019   22.1283 C   0  0  0  0  0  0  0  0  0  0  0  0
   10.8660   -6.8209   21.2425 C   0  0  0  0  0  0  0  0  0  0  0  0
   11.6481   -5.6017   20.9837 C   0  0  0  0  0  0  0  0  0  0  0  0
   11.5359   -4.7238   21.7845 O   0  0  0  0  0  0  0  0  0  0  0  0
   12.4812   -5.7052   19.8186 N   0  0  0  0  0  0  0  0  0  0  0  0
   13.5153   -4.8195   19.3023 C   0  0  0  0  0  0  0  0  0  0  0  0
   13.0310   -3.8730   18.2246 C   0  0  0  0  0  0  0  0  0  0  0  0
   11.8681   -3.1366   18.4903 C   0  0  0  0  0  0  0  0  0  0  0  0
   11.3555   -2.2329   17.5689 C   0  0  0  0  0  0  0  0  0  0  0  0
   12.0234   -1.9934   16.3795 C   0  0  0  0  0  0  0  0  0  0  0  0
   13.2313   -2.6403   16.1083 C   0  0  0  0  0  0  0  0  0  0  0  0
   13.7288   -3.6089   17.0159 C   0  0  0  0  0  0  0  0  0  0  0  0
   15.0539   -4.2644   16.6913 C   0  0  0  0  0  0  0  0  0  0  0  0
   15.5215   -4.0463   15.2446 C   0  0  0  0  0  0  0  0  0  0  0  0
   15.3674   -2.6559   14.8300 N   0  0  0  0  0  0  0  0  0  0  0  0
   13.9529   -2.2865   14.8283 C   0  0  0  0  0  0  0  0  0  0  0  0
   11.1388   -8.0854   20.8070 N   0  0  0  0  0  0  0  0  0  0  0  0
   10.3197   -9.0358   21.2965 N   0  0  0  0  0  0  0  0  0  0  0  0
    6.5405   -9.7127   25.1002 H   0  0  0  0  0  0  0  0  0  0  0  0
    6.9688  -11.2054   24.2712 H   0  0  0  0  0  0  0  0  0  0  0  0
    5.3868  -10.4205   23.9649 H   0  0  0  0  0  0  0  0  0  0  0  0
    6.9511   -9.9296   22.0486 H   0  0  0  0  0  0  0  0  0  0  0  0
    6.5124   -7.4980   23.8603 H   0  0  0  0  0  0  0  0  0  0  0  0
    5.3076   -8.2029   22.7697 H   0  0  0  0  0  0  0  0  0  0  0  0
    6.7660   -7.4509   22.1118 H   0  0  0  0  0  0  0  0  0  0  0  0
    9.1099  -10.1883   23.2924 H   0  0  0  0  0  0  0  0  0  0  0  0
    8.8032   -8.7040   24.1698 H   0  0  0  0  0  0  0  0  0  0  0  0
    9.3777   -6.2313   22.7567 H   0  0  0  0  0  0  0  0  0  0  0  0
   12.2560   -6.5531   19.3284 H   0  0  0  0  0  0  0  0  0  0  0  0
   13.9078   -4.2298   20.1384 H   0  0  0  0  0  0  0  0  0  0  0  0
   14.3138   -5.4721   18.9427 H   0  0  0  0  0  0  0  0  0  0  0  0
   11.3443   -3.2477   19.4372 H   0  0  0  0  0  0  0  0  0  0  0  0
   10.4345   -1.6995   17.7901 H   0  0  0  0  0  0  0  0  0  0  0  0
   11.6079   -1.2679   15.6847 H   0  0  0  0  0  0  0  0  0  0  0  0
   15.8076   -3.8595   17.3783 H   0  0  0  0  0  0  0  0  0  0  0  0
   14.9842   -5.3452   16.8572 H   0  0  0  0  0  0  0  0  0  0  0  0
   14.9752   -4.7070   14.5629 H   0  0  0  0  0  0  0  0  0  0  0  0
   16.5772   -4.3306   15.1693 H   0  0  0  0  0  0  0  0  0  0  0  0
   15.7431   -2.5288   13.8924 H   0  0  0  0  0  0  0  0  0  0  0  0
   13.4412   -2.7635   13.9849 H   0  0  0  0  0  0  0  0  0  0  0  0
   13.8975   -1.2027   14.6722 H   0  0  0  0  0  0  0  0  0  0  0  0
   11.9106   -8.3951   20.2277 H   0  0  0  0  0  0  0  0  0  0  0  0
  1  2  1  0
  2  3  1  0
  2  4  1  0
  4  5  1  0
  5  6  1  0
  6  7  2  0
  7  8  1  0
  8  9  2  0
  8 10  1  0
 10 11  1  0
 11 12  1  0
 12 13  2  0
 13 14  1  0
 14 15  2  0
 15 16  1  0
 16 17  2  0
 17 18  1  0
 18 19  1  0
 19 20  1  0
 20 21  1  0
  7 22  1  0
 22 23  1  0
 23  5  2  0
 17 12  1  0
 21 16  1  0
  1 24  1  0
  1 25  1  0
  1 26  1  0
  2 27  1  0
  3 28  1  0
  3 29  1  0
  3 30  1  0
  4 31  1  0
  4 32  1  0
  6 33  1  0
 10 34  1  0
 11 35  1  0
 11 36  1  0
 13 37  1  0
 14 38  1  0
 15 39  1  0
 18 40  1  0
 18 41  1  0
 19 42  1  0
 19 43  1  0
 20 44  1  0
 21 45  1  0
 21 46  1  0
 22 47  1  0
M  END
>  <Energy>  (1115) 
20.106470978281447

>  <compound_id>  (1115) 
21455

>  <target_id>  (1115) 
1

>  <reference_id>  (1115) 
96

>  <inspiration_ids>  (1115) 
[96, 146]

>  <energy_score>  (1115) 
-13.769626271805606

>  <distance_score>  (1115) 
12.429585825342647

>  <path>  (1115) 
/opt/xchem-fragalysis-2/maxwin/BulkDock/SCRATCH/511017/C21455-P96/C21455-P96.minimised.mol

>  <scratch_subdir>  (1115) 
/opt/xchem-fragalysis-2/maxwin/BulkDock/SCRATCH/511017/C21455-P96

>  <fragmenstein_runtime>  (1115) 
17.874563217163086

>  <fragmenstein_outcome>  (1115) 
too moved

>  <fragmenstein_mode>  (1115) 
expansion

>  <fragmenstein_error>  (1115) 


$$$$
C21455-P146
     RDKit          3D

 47 49  0  0  0  0  0  0  0  0999 V2000
    4.7305  -13.5258   19.1310 C   0  0  0  0  0  0  0  0  0  0  0  0
    6.1787  -12.5562   19.1761 C   0  0  0  0  0  0  0  0  0  0  0  0
    6.1254  -12.4079   20.5329 C   0  0  0  0  0  0  0  0  0  0  0  0
    7.1898  -10.9236   18.9478 C   0  0  0  0  0  0  0  0  0  0  0  0
    8.8042  -10.7457   17.7976 C   0  0  0  0  0  0  0  0  0  0  0  0
    9.3366  -10.6096   16.3710 C   0  0  0  0  0  0  0  0  0  0  0  0
   10.7250  -10.9021   16.3238 C   0  0  0  0  0  0  0  0  0  0  0  0
   11.9031  -10.9640   15.4643 C   0  0  0  0  0  0  0  0  0  0  0  0
   11.8407  -11.5006   14.3962 O   0  0  0  0  0  0  0  0  0  0  0  0
   13.0424  -10.3758   16.1707 N   0  0  0  0  0  0  0  0  0  0  0  0
   14.4278  -10.1757   15.7544 C   0  0  0  0  0  0  0  0  0  0  0  0
   15.3107   -9.6921   16.9103 C   0  0  0  0  0  0  0  0  0  0  0  0
   15.6282  -10.6273   17.9041 C   0  0  0  0  0  0  0  0  0  0  0  0
   16.3349  -10.2587   19.0501 C   0  0  0  0  0  0  0  0  0  0  0  0
   16.6900   -8.9314   19.2652 C   0  0  0  0  0  0  0  0  0  0  0  0
   16.4046   -7.9650   18.3031 C   0  0  0  0  0  0  0  0  0  0  0  0
   15.7908   -8.3651   17.0932 C   0  0  0  0  0  0  0  0  0  0  0  0
   15.6462   -7.3043   16.0460 C   0  0  0  0  0  0  0  0  0  0  0  0
   16.5672   -6.0952   16.2563 C   0  0  0  0  0  0  0  0  0  0  0  0
   16.3435   -5.5492   17.5903 N   0  0  0  0  0  0  0  0  0  0  0  0
   16.8075   -6.5281   18.5777 C   0  0  0  0  0  0  0  0  0  0  0  0
   10.9221  -11.3804   17.5425 N   0  0  0  0  0  0  0  0  0  0  0  0
    9.9206  -11.2210   18.3360 N   0  0  0  0  0  0  0  0  0  0  0  0
    4.0381  -13.0926   18.4007 H   0  0  0  0  0  0  0  0  0  0  0  0
    4.8321  -14.5169   18.7047 H   0  0  0  0  0  0  0  0  0  0  0  0
    4.2203  -13.6754   20.0757 H   0  0  0  0  0  0  0  0  0  0  0  0
    5.6823  -12.0320   18.4414 H   0  0  0  0  0  0  0  0  0  0  0  0
    6.8827  -13.1097   20.8795 H   0  0  0  0  0  0  0  0  0  0  0  0
    5.1185  -12.5115   20.9064 H   0  0  0  0  0  0  0  0  0  0  0  0
    6.3030  -11.4179   20.8533 H   0  0  0  0  0  0  0  0  0  0  0  0
    6.2796  -10.5535   18.5549 H   0  0  0  0  0  0  0  0  0  0  0  0
    7.6069  -10.5738   19.8172 H   0  0  0  0  0  0  0  0  0  0  0  0
    8.7827  -10.3323   15.4998 H   0  0  0  0  0  0  0  0  0  0  0  0
   12.7136   -9.9325   17.0214 H   0  0  0  0  0  0  0  0  0  0  0  0
   14.8029  -11.1243   15.3546 H   0  0  0  0  0  0  0  0  0  0  0  0
   14.4365   -9.4674   14.9343 H   0  0  0  0  0  0  0  0  0  0  0  0
   15.3070  -11.6616   17.7990 H   0  0  0  0  0  0  0  0  0  0  0  0
   16.5668  -11.0080   19.8026 H   0  0  0  0  0  0  0  0  0  0  0  0
   17.1966   -8.6589   20.1875 H   0  0  0  0  0  0  0  0  0  0  0  0
   15.8879   -7.7514   15.0812 H   0  0  0  0  0  0  0  0  0  0  0  0
   14.6063   -6.9852   16.0932 H   0  0  0  0  0  0  0  0  0  0  0  0
   16.3651   -5.3135   15.5232 H   0  0  0  0  0  0  0  0  0  0  0  0
   17.6199   -6.3782   16.1227 H   0  0  0  0  0  0  0  0  0  0  0  0
   16.8785   -4.6917   17.7095 H   0  0  0  0  0  0  0  0  0  0  0  0
   16.4128   -6.2302   19.5560 H   0  0  0  0  0  0  0  0  0  0  0  0
   17.9030   -6.4869   18.6347 H   0  0  0  0  0  0  0  0  0  0  0  0
   11.7580  -11.8128   17.9243 H   0  0  0  0  0  0  0  0  0  0  0  0
  1  2  1  0
  2  3  1  0
  2  4  1  0
  4  5  1  0
  5  6  1  0
  6  7  2  0
  7  8  1  0
  8  9  2  0
  8 10  1  0
 10 11  1  0
 11 12  1  0
 12 13  2  0
 13 14  1  0
 14 15  2  0
 15 16  1  0
 16 17  2  0
 17 18  1  0
 18 19  1  0
 19 20  1  0
 20 21  1  0
  7 22  1  0
 22 23  1  0
 23  5  2  0
 17 12  1  0
 21 16  1  0
  1 24  1  0
  1 25  1  0
  1 26  1  0
  2 27  1  0
  3 28  1  0
  3 29  1  0
  3 30  1  0
  4 31  1  0
  4 32  1  0
  6 33  1  0
 10 34  1  0
 11 35  1  0
 11 36  1  0
 13 37  1  0
 14 38  1  0
 15 39  1  0
 18 40  1  0
 18 41  1  0
 19 42  1  0
 19 43  1  0
 20 44  1  0
 21 45  1  0
 21 46  1  0
 22 47  1  0
M  END
>  <Energy>  (1116) 
293.67995849037936

>  <compound_id>  (1116) 
21455

>  <target_id>  (1116) 
1

>  <reference_id>  (1116) 
146

>  <inspiration_ids>  (1116) 
[96, 146]

>  <energy_score>  (1116) 
259.8038612402904

>  <distance_score>  (1116) 
13.004867612120933

>  <path>  (1116) 
/opt/xchem-fragalysis-2/maxwin/BulkDock/SCRATCH/511017/C21455-P146/C21455-P146.minimised.mol

>  <scratch_subdir>  (1116) 
/opt/xchem-fragalysis-2/maxwin/BulkDock/SCRATCH/511017/C21455-P146

>  <fragmenstein_runtime>  (1116) 
19.259467601776123

>  <fragmenstein_outcome>  (1116) 
too moved

>  <fragmenstein_mode>  (1116) 
expansion

>  <fragmenstein_error>  (1116) 


$$$$
C21493-P96
     RDKit          3D

 44 46  0  0  0  0  0  0  0  0999 V2000
    5.2611  -10.2202   24.3851 C   0  0  0  0  0  0  0  0  0  0  0  0
    5.8955   -9.2676   23.3406 C   0  0  0  0  0  0  0  0  0  0  0  0
    7.4645   -9.1036   23.4181 C   0  0  0  0  0  0  0  0  0  0  0  0
    8.1331   -7.9257   22.6666 C   0  0  0  0  0  0  0  0  0  0  0  0
    9.3283   -7.7760   21.9488 C   0  0  0  0  0  0  0  0  0  0  0  0
    9.4473   -6.3895   21.6738 C   0  0  0  0  0  0  0  0  0  0  0  0
   10.3928   -5.6345   21.0473 N   0  0  0  0  0  0  0  0  0  0  0  0
   11.4346   -6.0008   20.1094 C   0  0  0  0  0  0  0  0  0  0  0  0
   11.7803   -7.0739   19.7062 O   0  0  0  0  0  0  0  0  0  0  0  0
   12.1521   -4.6754   19.6928 C   0  0  0  0  0  0  0  0  0  0  0  0
   13.0585   -4.6714   18.4666 C   0  0  0  0  0  0  0  0  0  0  0  0
   14.0680   -5.6436   18.3849 C   0  0  0  0  0  0  0  0  0  0  0  0
   14.9884   -5.6465   17.3406 C   0  0  0  0  0  0  0  0  0  0  0  0
   14.9513   -4.6496   16.3742 C   0  0  0  0  0  0  0  0  0  0  0  0
   13.9913   -3.6340   16.4366 C   0  0  0  0  0  0  0  0  0  0  0  0
   13.0162   -3.6571   17.4647 C   0  0  0  0  0  0  0  0  0  0  0  0
   11.9744   -2.5541   17.4640 C   0  0  0  0  0  0  0  0  0  0  0  0
   11.8982   -1.7822   16.1394 C   0  0  0  0  0  0  0  0  0  0  0  0
   13.2266   -1.3768   15.6768 N   0  0  0  0  0  0  0  0  0  0  0  0
   14.0083   -2.5706   15.3578 C   0  0  0  0  0  0  0  0  0  0  0  0
    8.3837   -5.7242   22.1163 N   0  0  0  0  0  0  0  0  0  0  0  0
    7.6233   -6.6540   22.7157 N   0  0  0  0  0  0  0  0  0  0  0  0
    5.8280  -11.1472   24.4858 H   0  0  0  0  0  0  0  0  0  0  0  0
    5.2647   -9.7348   25.3670 H   0  0  0  0  0  0  0  0  0  0  0  0
    4.2232  -10.4435   24.1249 H   0  0  0  0  0  0  0  0  0  0  0  0
    5.6506   -9.5891   22.3277 H   0  0  0  0  0  0  0  0  0  0  0  0
    5.4271   -8.2840   23.4648 H   0  0  0  0  0  0  0  0  0  0  0  0
    7.9236  -10.0346   23.0628 H   0  0  0  0  0  0  0  0  0  0  0  0
    7.7434   -8.9955   24.4743 H   0  0  0  0  0  0  0  0  0  0  0  0
   10.0411   -8.5547   21.7133 H   0  0  0  0  0  0  0  0  0  0  0  0
   10.3259   -4.6275   21.0906 H   0  0  0  0  0  0  0  0  0  0  0  0
   12.7632   -4.3634   20.5506 H   0  0  0  0  0  0  0  0  0  0  0  0
   11.3839   -3.9084   19.5651 H   0  0  0  0  0  0  0  0  0  0  0  0
   14.1493   -6.4233   19.1407 H   0  0  0  0  0  0  0  0  0  0  0  0
   15.7431   -6.4271   17.2864 H   0  0  0  0  0  0  0  0  0  0  0  0
   15.6827   -4.6675   15.5690 H   0  0  0  0  0  0  0  0  0  0  0  0
   12.2081   -1.8606   18.2810 H   0  0  0  0  0  0  0  0  0  0  0  0
   10.9844   -2.9814   17.6440 H   0  0  0  0  0  0  0  0  0  0  0  0
   11.2858   -0.8886   16.2819 H   0  0  0  0  0  0  0  0  0  0  0  0
   11.4006   -2.3849   15.3687 H   0  0  0  0  0  0  0  0  0  0  0  0
   13.6947   -0.8848   16.4380 H   0  0  0  0  0  0  0  0  0  0  0  0
   13.6442   -2.9998   14.4187 H   0  0  0  0  0  0  0  0  0  0  0  0
   15.0431   -2.2529   15.1819 H   0  0  0  0  0  0  0  0  0  0  0  0
    6.7565   -6.3533   23.1521 H   0  0  0  0  0  0  0  0  0  0  0  0
  1  2  1  0
  2  3  1  0
  3  4  1  0
  4  5  2  0
  5  6  1  0
  6  7  1  0
  7  8  1  0
  8  9  2  0
  8 10  1  0
 10 11  1  0
 11 12  2  0
 12 13  1  0
 13 14  2  0
 14 15  1  0
 15 16  2  0
 16 17  1  0
 17 18  1  0
 18 19  1  0
 19 20  1  0
  6 21  2  0
 21 22  1  0
 22  4  1  0
 16 11  1  0
 20 15  1  0
  1 23  1  0
  1 24  1  0
  1 25  1  0
  2 26  1  0
  2 27  1  0
  3 28  1  0
  3 29  1  0
  5 30  1  0
  7 31  1  0
 10 32  1  0
 10 33  1  0
 12 34  1  0
 13 35  1  0
 14 36  1  0
 17 37  1  0
 17 38  1  0
 18 39  1  0
 18 40  1  0
 19 41  1  0
 20 42  1  0
 20 43  1  0
 22 44  1  0
M  END
>  <Energy>  (1117) 
28.993472376134232

>  <compound_id>  (1117) 
21493

>  <target_id>  (1117) 
1

>  <reference_id>  (1117) 
96

>  <inspiration_ids>  (1117) 
[96, 146]

>  <energy_score>  (1117) 
-31.1039863962271

>  <distance_score>  (1117) 
12.467365821798117

>  <path>  (1117) 
/opt/xchem-fragalysis-2/maxwin/BulkDock/SCRATCH/511017/C21493-P96/C21493-P96.minimised.mol

>  <scratch_subdir>  (1117) 
/opt/xchem-fragalysis-2/maxwin/BulkDock/SCRATCH/511017/C21493-P96

>  <fragmenstein_runtime>  (1117) 
11.665372848510742

>  <fragmenstein_outcome>  (1117) 
too moved

>  <fragmenstein_mode>  (1117) 
expansion

>  <fragmenstein_error>  (1117) 


$$$$
C21493-P146
     RDKit          3D

 44 46  0  0  0  0  0  0  0  0999 V2000
    0.8991   -7.4661   18.6307 C   0  0  0  0  0  0  0  0  0  0  0  0
    1.1891   -6.1055   19.2849 C   0  0  0  0  0  0  0  0  0  0  0  0
    2.0511   -5.0080   18.5112 C   0  0  0  0  0  0  0  0  0  0  0  0
    3.5894   -5.0021   18.5676 C   0  0  0  0  0  0  0  0  0  0  0  0
    4.5853   -4.3082   19.2944 C   0  0  0  0  0  0  0  0  0  0  0  0
    5.8518   -5.0641   19.0766 C   0  0  0  0  0  0  0  0  0  0  0  0
    7.1989   -5.4709   19.4974 N   0  0  0  0  0  0  0  0  0  0  0  0
    8.4422   -4.6093   20.4004 C   0  0  0  0  0  0  0  0  0  0  0  0
    8.3545   -3.5235   20.9255 O   0  0  0  0  0  0  0  0  0  0  0  0
   10.2530   -5.5393   20.3819 C   0  0  0  0  0  0  0  0  0  0  0  0
   12.0595   -4.9407   20.5251 C   0  0  0  0  0  0  0  0  0  0  0  0
   12.6165   -4.8037   21.8222 C   0  0  0  0  0  0  0  0  0  0  0  0
   13.9577   -4.4857   22.0563 C   0  0  0  0  0  0  0  0  0  0  0  0
   14.8313   -4.2561   21.0143 C   0  0  0  0  0  0  0  0  0  0  0  0
   14.3746   -4.2614   19.6985 C   0  0  0  0  0  0  0  0  0  0  0  0
   13.0052   -4.5799   19.4087 C   0  0  0  0  0  0  0  0  0  0  0  0
   12.6647   -4.2322   17.9447 C   0  0  0  0  0  0  0  0  0  0  0  0
   13.8169   -4.3091   16.9505 C   0  0  0  0  0  0  0  0  0  0  0  0
   14.8963   -3.4373   17.3793 N   0  0  0  0  0  0  0  0  0  0  0  0
   15.4192   -3.9608   18.6362 C   0  0  0  0  0  0  0  0  0  0  0  0
    5.6108   -5.8614   17.9881 N   0  0  0  0  0  0  0  0  0  0  0  0
    4.3164   -5.7559   17.6986 N   0  0  0  0  0  0  0  0  0  0  0  0
    0.3678   -8.1221   19.3264 H   0  0  0  0  0  0  0  0  0  0  0  0
    1.8208   -7.9550   18.3086 H   0  0  0  0  0  0  0  0  0  0  0  0
    0.2721   -7.3285   17.7440 H   0  0  0  0  0  0  0  0  0  0  0  0
    0.2056   -5.6438   19.4500 H   0  0  0  0  0  0  0  0  0  0  0  0
    1.6005   -6.2465   20.2760 H   0  0  0  0  0  0  0  0  0  0  0  0
    1.7420   -5.0155   17.4580 H   0  0  0  0  0  0  0  0  0  0  0  0
    1.7396   -4.0330   18.9110 H   0  0  0  0  0  0  0  0  0  0  0  0
    4.4043   -3.5352   20.0292 H   0  0  0  0  0  0  0  0  0  0  0  0
    7.5326   -6.3984   19.2535 H   0  0  0  0  0  0  0  0  0  0  0  0
   10.5625   -6.4491   20.8380 H   0  0  0  0  0  0  0  0  0  0  0  0
   10.0678   -5.8647   19.3840 H   0  0  0  0  0  0  0  0  0  0  0  0
   12.0556   -4.8736   22.7418 H   0  0  0  0  0  0  0  0  0  0  0  0
   14.3120   -4.4016   23.0814 H   0  0  0  0  0  0  0  0  0  0  0  0
   15.8681   -4.0196   21.2413 H   0  0  0  0  0  0  0  0  0  0  0  0
   12.3653   -3.1804   17.9309 H   0  0  0  0  0  0  0  0  0  0  0  0
   11.8453   -4.7868   17.5032 H   0  0  0  0  0  0  0  0  0  0  0  0
   13.4533   -3.9425   15.9869 H   0  0  0  0  0  0  0  0  0  0  0  0
   14.1630   -5.3414   16.8255 H   0  0  0  0  0  0  0  0  0  0  0  0
   15.6450   -3.4446   16.6902 H   0  0  0  0  0  0  0  0  0  0  0  0
   15.9867   -4.8818   18.4487 H   0  0  0  0  0  0  0  0  0  0  0  0
   16.1272   -3.2180   19.0229 H   0  0  0  0  0  0  0  0  0  0  0  0
    3.9573   -6.3045   16.9270 H   0  0  0  0  0  0  0  0  0  0  0  0
  1  2  1  0
  2  3  1  0
  3  4  1  0
  4  5  2  0
  5  6  1  0
  6  7  1  0
  7  8  1  0
  8  9  2  0
  8 10  1  0
 10 11  1  0
 11 12  2  0
 12 13  1  0
 13 14  2  0
 14 15  1  0
 15 16  2  0
 16 17  1  0
 17 18  1  0
 18 19  1  0
 19 20  1  0
  6 21  2  0
 21 22  1  0
 22  4  1  0
 16 11  1  0
 20 15  1  0
  1 23  1  0
  1 24  1  0
  1 25  1  0
  2 26  1  0
  2 27  1  0
  3 28  1  0
  3 29  1  0
  5 30  1  0
  7 31  1  0
 10 32  1  0
 10 33  1  0
 12 34  1  0
 13 35  1  0
 14 36  1  0
 17 37  1  0
 17 38  1  0
 18 39  1  0
 18 40  1  0
 19 41  1  0
 20 42  1  0
 20 43  1  0
 22 44  1  0
M  END
>  <Energy>  (1118) 
246.17119578047215

>  <compound_id>  (1118) 
21493

>  <target_id>  (1118) 
1

>  <reference_id>  (1118) 
146

>  <inspiration_ids>  (1118) 
[96, 146]

>  <energy_score>  (1118) 
186.0737370081099

>  <distance_score>  (1118) 
13.601642526930704

>  <path>  (1118) 
/opt/xchem-fragalysis-2/maxwin/BulkDock/SCRATCH/511017/C21493-P146/C21493-P146.minimised.mol

>  <scratch_subdir>  (1118) 
/opt/xchem-fragalysis-2/maxwin/BulkDock/SCRATCH/511017/C21493-P146

>  <fragmenstein_runtime>  (1118) 
19.196086645126343

>  <fragmenstein_outcome>  (1118) 
too moved

>  <fragmenstein_mode>  (1118) 
expansion

>  <fragmenstein_error>  (1118) 


$$$$
C28035-P48
     RDKit          3D

 23 25  0  0  0  0  0  0  0  0999 V2000
  -12.6611  -26.9165    9.7048 C   0  0  0  0  0  0  0  0  0  0  0  0
  -11.6771  -27.4642    8.8882 C   0  0  0  0  0  0  0  0  0  0  0  0
  -11.1460  -26.7051    7.8494 C   0  0  0  0  0  0  0  0  0  0  0  0
  -11.6226  -25.4161    7.6626 C   0  0  0  0  0  0  0  0  0  0  0  0
  -10.9813  -24.4996    6.7203 C   0  0  0  0  0  0  0  0  0  0  0  0
   -9.8429  -24.6046    6.0468 N   0  0  0  0  0  0  0  0  0  0  0  0
   -9.5997  -23.3165    5.6598 C   0  0  0  0  0  0  0  0  0  0  0  0
   -8.5235  -22.7250    4.9988 C   0  0  0  0  0  0  0  0  0  0  0  0
   -8.5850  -21.3460    4.7530 C   0  0  0  0  0  0  0  0  0  0  0  0
   -9.6528  -20.5704    5.2018 C   0  0  0  0  0  0  0  0  0  0  0  0
  -10.7378  -21.1622    5.8294 C   0  0  0  0  0  0  0  0  0  0  0  0
  -10.6582  -22.5177    6.0277 C   0  0  0  0  0  0  0  0  0  0  0  0
  -11.5845  -23.2777    6.6374 O   0  0  0  0  0  0  0  0  0  0  0  0
  -12.6152  -24.8798    8.4341 N   0  0  0  0  0  0  0  0  0  0  0  0
  -13.1017  -25.6342    9.4355 C   0  0  0  0  0  0  0  0  0  0  0  0
  -13.0834  -27.4848   10.5262 H   0  0  0  0  0  0  0  0  0  0  0  0
  -11.3098  -28.4704    9.0705 H   0  0  0  0  0  0  0  0  0  0  0  0
  -10.3422  -27.0920    7.2307 H   0  0  0  0  0  0  0  0  0  0  0  0
   -7.6798  -23.3235    4.6762 H   0  0  0  0  0  0  0  0  0  0  0  0
   -7.7831  -20.8760    4.1877 H   0  0  0  0  0  0  0  0  0  0  0  0
   -9.6724  -19.5011    5.0014 H   0  0  0  0  0  0  0  0  0  0  0  0
  -11.6261  -20.6231    6.0904 H   0  0  0  0  0  0  0  0  0  0  0  0
  -13.8783  -25.1691   10.0350 H   0  0  0  0  0  0  0  0  0  0  0  0
  1  2  2  0
  2  3  1  0
  3  4  2  0
  4  5  1  0
  5  6  2  0
  6  7  1  0
  7  8  2  0
  8  9  1  0
  9 10  2  0
 10 11  1  0
 11 12  2  0
 12 13  1  0
  4 14  1  0
 14 15  2  0
 15  1  1  0
 13  5  1  0
 12  7  1  0
  1 16  1  0
  2 17  1  0
  3 18  1  0
  8 19  1  0
  9 20  1  0
 10 21  1  0
 11 22  1  0
 15 23  1  0
M  END
>  <Energy>  (1119) 
68.722924422882343

>  <compound_id>  (1119) 
28035

>  <target_id>  (1119) 
1

>  <reference_id>  (1119) 
48

>  <inspiration_ids>  (1119) 
[48, 2]

>  <energy_score>  (1119) 
-10.397169438613702

>  <distance_score>  (1119) 
3.254558967443719

>  <path>  (1119) 
/opt/xchem-fragalysis-2/maxwin/BulkDock/SCRATCH/511017/C28035-P48/C28035-P48.minimised.mol

>  <scratch_subdir>  (1119) 
/opt/xchem-fragalysis-2/maxwin/BulkDock/SCRATCH/511017/C28035-P48

>  <fragmenstein_runtime>  (1119) 
0.7683615684509277

>  <fragmenstein_outcome>  (1119) 
too moved

>  <fragmenstein_mode>  (1119) 
expansion

>  <fragmenstein_error>  (1119) 


$$$$
C28035-P2
     RDKit          3D

 23 25  0  0  0  0  0  0  0  0999 V2000
  -13.5467  -26.1882    8.5290 C   0  0  0  0  0  0  0  0  0  0  0  0
  -12.4804  -26.7647    7.8510 C   0  0  0  0  0  0  0  0  0  0  0  0
  -11.5225  -25.9401    7.2694 C   0  0  0  0  0  0  0  0  0  0  0  0
  -11.6567  -24.5557    7.4002 C   0  0  0  0  0  0  0  0  0  0  0  0
  -10.4725  -23.6776    7.3160 C   0  0  0  0  0  0  0  0  0  0  0  0
  -10.4065  -22.3502    7.2915 N   0  0  0  0  0  0  0  0  0  0  0  0
   -9.5652  -22.0887    8.3463 C   0  0  0  0  0  0  0  0  0  0  0  0
   -9.2845  -20.9116    9.0382 C   0  0  0  0  0  0  0  0  0  0  0  0
   -8.5846  -21.0375   10.2507 C   0  0  0  0  0  0  0  0  0  0  0  0
   -8.1373  -22.2740   10.7255 C   0  0  0  0  0  0  0  0  0  0  0  0
   -8.2980  -23.4338    9.9771 C   0  0  0  0  0  0  0  0  0  0  0  0
   -9.0189  -23.2726    8.8098 C   0  0  0  0  0  0  0  0  0  0  0  0
   -9.4157  -24.2650    7.9769 O   0  0  0  0  0  0  0  0  0  0  0  0
  -12.7293  -23.9799    8.0103 N   0  0  0  0  0  0  0  0  0  0  0  0
  -13.6407  -24.8070    8.5604 C   0  0  0  0  0  0  0  0  0  0  0  0
  -14.3058  -26.8029    9.0008 H   0  0  0  0  0  0  0  0  0  0  0  0
  -12.3795  -27.8451    7.8002 H   0  0  0  0  0  0  0  0  0  0  0  0
  -10.6332  -26.3708    6.8193 H   0  0  0  0  0  0  0  0  0  0  0  0
   -9.6658  -19.9603    8.6910 H   0  0  0  0  0  0  0  0  0  0  0  0
   -8.3573  -20.1653   10.8537 H   0  0  0  0  0  0  0  0  0  0  0  0
   -7.5798  -22.3101   11.6605 H   0  0  0  0  0  0  0  0  0  0  0  0
   -7.9264  -24.3941   10.3055 H   0  0  0  0  0  0  0  0  0  0  0  0
  -14.4756  -24.3152    9.0519 H   0  0  0  0  0  0  0  0  0  0  0  0
  1  2  2  0
  2  3  1  0
  3  4  2  0
  4  5  1  0
  5  6  2  0
  6  7  1  0
  7  8  2  0
  8  9  1  0
  9 10  2  0
 10 11  1  0
 11 12  2  0
 12 13  1  0
  4 14  1  0
 14 15  2  0
 15  1  1  0
 13  5  1  0
 12  7  1  0
  1 16  1  0
  2 17  1  0
  3 18  1  0
  8 19  1  0
  9 20  1  0
 10 21  1  0
 11 22  1  0
 15 23  1  0
M  END
>  <Energy>  (1120) 
92.64799772067326

>  <compound_id>  (1120) 
28035

>  <target_id>  (1120) 
1

>  <reference_id>  (1120) 
2

>  <inspiration_ids>  (1120) 
[48, 2]

>  <energy_score>  (1120) 
13.52790385917774

>  <distance_score>  (1120) 
1.4974002695330058

>  <path>  (1120) 
/opt/xchem-fragalysis-2/maxwin/BulkDock/SCRATCH/511017/C28035-P2/C28035-P2.minimised.mol

>  <scratch_subdir>  (1120) 
/opt/xchem-fragalysis-2/maxwin/BulkDock/SCRATCH/511017/C28035-P2

>  <fragmenstein_runtime>  (1120) 
0.7185647487640381

>  <fragmenstein_outcome>  (1120) 
too moved

>  <fragmenstein_mode>  (1120) 
expansion

>  <fragmenstein_error>  (1120) 


$$$$
C28036-P48
     RDKit          3D

 23 25  0  0  0  0  0  0  0  0999 V2000
   -9.5114  -23.9809   12.4840 C   0  0  0  0  0  0  0  0  0  0  0  0
   -8.6403  -24.9301   11.9053 C   0  0  0  0  0  0  0  0  0  0  0  0
   -8.9798  -25.7056   10.8008 C   0  0  0  0  0  0  0  0  0  0  0  0
  -10.2229  -25.4241   10.2903 C   0  0  0  0  0  0  0  0  0  0  0  0
  -10.7074  -25.8276    9.0841 O   0  0  0  0  0  0  0  0  0  0  0  0
  -11.8573  -25.1076    8.9655 C   0  0  0  0  0  0  0  0  0  0  0  0
  -12.6963  -25.3584    7.8364 C   0  0  0  0  0  0  0  0  0  0  0  0
  -14.0220  -24.9476    7.9470 C   0  0  0  0  0  0  0  0  0  0  0  0
  -14.8270  -25.1036    6.8539 C   0  0  0  0  0  0  0  0  0  0  0  0
  -14.3984  -25.6410    5.6969 N   0  0  0  0  0  0  0  0  0  0  0  0
  -13.1158  -26.0567    5.6307 C   0  0  0  0  0  0  0  0  0  0  0  0
  -12.2266  -25.9478    6.6716 C   0  0  0  0  0  0  0  0  0  0  0  0
  -12.1300  -24.2918    9.9616 N   0  0  0  0  0  0  0  0  0  0  0  0
  -11.1075  -24.4896   10.8261 C   0  0  0  0  0  0  0  0  0  0  0  0
  -10.7698  -23.7511   11.9544 C   0  0  0  0  0  0  0  0  0  0  0  0
   -9.2113  -23.3679   13.3292 H   0  0  0  0  0  0  0  0  0  0  0  0
   -7.6179  -25.0316   12.2487 H   0  0  0  0  0  0  0  0  0  0  0  0
   -8.2869  -26.3801   10.3158 H   0  0  0  0  0  0  0  0  0  0  0  0
  -14.4124  -24.4922    8.8512 H   0  0  0  0  0  0  0  0  0  0  0  0
  -15.8665  -24.7904    6.8651 H   0  0  0  0  0  0  0  0  0  0  0  0
  -12.8175  -26.4867    4.6789 H   0  0  0  0  0  0  0  0  0  0  0  0
  -11.1983  -26.2722    6.5624 H   0  0  0  0  0  0  0  0  0  0  0  0
  -11.4239  -22.9888   12.3594 H   0  0  0  0  0  0  0  0  0  0  0  0
  1  2  2  0
  2  3  1  0
  3  4  2  0
  4  5  1  0
  5  6  1  0
  6  7  1  0
  7  8  2  0
  8  9  1  0
  9 10  2  0
 10 11  1  0
 11 12  2  0
  6 13  2  0
 13 14  1  0
 14 15  2  0
 15  1  1  0
 14  4  1  0
 12  7  1  0
  1 16  1  0
  2 17  1  0
  3 18  1  0
  8 19  1  0
  9 20  1  0
 11 21  1  0
 12 22  1  0
 15 23  1  0
M  END
>  <Energy>  (1121) 
33.930669925373252

>  <compound_id>  (1121) 
28036

>  <target_id>  (1121) 
1

>  <reference_id>  (1121) 
48

>  <inspiration_ids>  (1121) 
[48, 2]

>  <energy_score>  (1121) 
-13.506133432837501

>  <distance_score>  (1121) 
3.6687693348239003

>  <path>  (1121) 
/opt/xchem-fragalysis-2/maxwin/BulkDock/SCRATCH/511017/C28036-P48/C28036-P48.minimised.mol

>  <scratch_subdir>  (1121) 
/opt/xchem-fragalysis-2/maxwin/BulkDock/SCRATCH/511017/C28036-P48

>  <fragmenstein_runtime>  (1121) 
0.9175348281860352

>  <fragmenstein_outcome>  (1121) 
too moved

>  <fragmenstein_mode>  (1121) 
expansion

>  <fragmenstein_error>  (1121) 


$$$$
C28036-P2
     RDKit          3D

 23 25  0  0  0  0  0  0  0  0999 V2000
   -8.4975  -21.0372   10.3020 C   0  0  0  0  0  0  0  0  0  0  0  0
   -8.1068  -22.2740   10.8263 C   0  0  0  0  0  0  0  0  0  0  0  0
   -8.3187  -23.4548   10.1262 C   0  0  0  0  0  0  0  0  0  0  0  0
   -9.0237  -23.3063    8.9481 C   0  0  0  0  0  0  0  0  0  0  0  0
   -9.4838  -24.3145    8.1695 O   0  0  0  0  0  0  0  0  0  0  0  0
  -10.4411  -23.6925    7.4148 C   0  0  0  0  0  0  0  0  0  0  0  0
  -11.6670  -24.4789    7.4019 C   0  0  0  0  0  0  0  0  0  0  0  0
  -12.3405  -24.6458    8.6271 C   0  0  0  0  0  0  0  0  0  0  0  0
  -13.5030  -25.3770    8.6465 C   0  0  0  0  0  0  0  0  0  0  0  0
  -14.0185  -25.9469    7.5436 N   0  0  0  0  0  0  0  0  0  0  0  0
  -13.3378  -25.7978    6.3839 C   0  0  0  0  0  0  0  0  0  0  0  0
  -12.1618  -25.0846    6.2603 C   0  0  0  0  0  0  0  0  0  0  0  0
  -10.3356  -22.3733    7.3683 N   0  0  0  0  0  0  0  0  0  0  0  0
   -9.5005  -22.1151    8.4279 C   0  0  0  0  0  0  0  0  0  0  0  0
   -9.1813  -20.9264    9.0801 C   0  0  0  0  0  0  0  0  0  0  0  0
   -8.2199  -20.1525   10.8651 H   0  0  0  0  0  0  0  0  0  0  0  0
   -7.5490  -22.2975   11.7615 H   0  0  0  0  0  0  0  0  0  0  0  0
   -7.9954  -24.4178   10.4961 H   0  0  0  0  0  0  0  0  0  0  0  0
  -11.9638  -24.2016    9.5427 H   0  0  0  0  0  0  0  0  0  0  0  0
  -14.0665  -25.5296    9.5615 H   0  0  0  0  0  0  0  0  0  0  0  0
  -13.7874  -26.2853    5.5227 H   0  0  0  0  0  0  0  0  0  0  0  0
  -11.6647  -24.9926    5.3019 H   0  0  0  0  0  0  0  0  0  0  0  0
   -9.5094  -19.9737    8.6862 H   0  0  0  0  0  0  0  0  0  0  0  0
  1  2  2  0
  2  3  1  0
  3  4  2  0
  4  5  1  0
  5  6  1  0
  6  7  1  0
  7  8  2  0
  8  9  1  0
  9 10  2  0
 10 11  1  0
 11 12  2  0
  6 13  2  0
 13 14  1  0
 14 15  2  0
 15  1  1  0
 14  4  1  0
 12  7  1  0
  1 16  1  0
  2 17  1  0
  3 18  1  0
  8 19  1  0
  9 20  1  0
 11 21  1  0
 12 22  1  0
 15 23  1  0
M  END
>  <Energy>  (1122) 
50.025945855531887

>  <compound_id>  (1122) 
28036

>  <target_id>  (1122) 
1

>  <reference_id>  (1122) 
2

>  <inspiration_ids>  (1122) 
[48, 2]

>  <energy_score>  (1122) 
2.589142497321829

>  <distance_score>  (1122) 
1.8010459608928882

>  <path>  (1122) 
/opt/xchem-fragalysis-2/maxwin/BulkDock/SCRATCH/511017/C28036-P2/C28036-P2.minimised.mol

>  <scratch_subdir>  (1122) 
/opt/xchem-fragalysis-2/maxwin/BulkDock/SCRATCH/511017/C28036-P2

>  <fragmenstein_runtime>  (1122) 
0.8088691234588623

>  <fragmenstein_outcome>  (1122) 
too moved

>  <fragmenstein_mode>  (1122) 
expansion

>  <fragmenstein_error>  (1122) 


$$$$
C28038-P48
     RDKit          3D

 42 44  0  0  0  0  0  0  0  0999 V2000
  -14.5964  -23.2024    6.0272 C   0  0  0  0  0  0  0  0  0  0  0  0
  -13.6978  -24.4482    5.8230 C   0  0  0  0  0  0  0  0  0  0  0  0
  -14.6172  -25.5597    5.2597 C   0  0  0  0  0  0  0  0  0  0  0  0
  -12.6277  -24.0711    4.7497 C   0  0  0  0  0  0  0  0  0  0  0  0
  -12.6804  -24.5048    3.6648 O   0  0  0  0  0  0  0  0  0  0  0  0
  -11.6640  -23.0209    5.3678 N   0  0  0  0  0  0  0  0  0  0  0  0
  -10.5101  -22.3610    4.8039 C   0  0  0  0  0  0  0  0  0  0  0  0
   -9.4024  -23.3082    4.3455 C   0  0  0  0  0  0  0  0  0  0  0  0
   -8.7557  -23.9729    5.4975 C   0  0  0  0  0  0  0  0  0  0  0  0
   -9.2943  -24.8138    6.3542 N   0  0  0  0  0  0  0  0  0  0  0  0
   -8.3244  -24.9523    7.3123 C   0  0  0  0  0  0  0  0  0  0  0  0
   -8.3444  -25.5590    8.5760 C   0  0  0  0  0  0  0  0  0  0  0  0
   -7.2350  -25.4153    9.4206 C   0  0  0  0  0  0  0  0  0  0  0  0
   -6.0864  -24.7623    8.9777 C   0  0  0  0  0  0  0  0  0  0  0  0
   -6.0190  -24.2192    7.6888 C   0  0  0  0  0  0  0  0  0  0  0  0
   -7.1789  -24.2878    6.9249 C   0  0  0  0  0  0  0  0  0  0  0  0
   -7.4420  -23.6644    5.7380 O   0  0  0  0  0  0  0  0  0  0  0  0
  -13.0926  -24.9450    7.1407 C   0  0  0  0  0  0  0  0  0  0  0  0
  -12.3204  -26.1090    7.1964 C   0  0  0  0  0  0  0  0  0  0  0  0
  -11.8922  -26.5933    8.4346 C   0  0  0  0  0  0  0  0  0  0  0  0
  -12.2191  -25.8929    9.5852 C   0  0  0  0  0  0  0  0  0  0  0  0
  -11.6431  -26.4684   11.2833 Br  0  0  0  0  0  0  0  0  0  0  0  0
  -12.9741  -24.7439    9.4550 C   0  0  0  0  0  0  0  0  0  0  0  0
  -13.4113  -24.2547    8.2698 N   0  0  0  0  0  0  0  0  0  0  0  0
  -14.9861  -22.8391    5.0686 H   0  0  0  0  0  0  0  0  0  0  0  0
  -15.4555  -23.4290    6.6701 H   0  0  0  0  0  0  0  0  0  0  0  0
  -14.0578  -22.3675    6.4879 H   0  0  0  0  0  0  0  0  0  0  0  0
  -15.1471  -25.2204    4.3614 H   0  0  0  0  0  0  0  0  0  0  0  0
  -15.3714  -25.8654    5.9948 H   0  0  0  0  0  0  0  0  0  0  0  0
  -14.0518  -26.4542    4.9735 H   0  0  0  0  0  0  0  0  0  0  0  0
  -11.9527  -22.8140    6.3206 H   0  0  0  0  0  0  0  0  0  0  0  0
  -10.8736  -21.8006    3.9359 H   0  0  0  0  0  0  0  0  0  0  0  0
  -10.1467  -21.6417    5.5447 H   0  0  0  0  0  0  0  0  0  0  0  0
   -8.6560  -22.7367    3.7817 H   0  0  0  0  0  0  0  0  0  0  0  0
   -9.8037  -24.0706    3.6686 H   0  0  0  0  0  0  0  0  0  0  0  0
   -9.2287  -26.0754    8.9163 H   0  0  0  0  0  0  0  0  0  0  0  0
   -7.2628  -25.8410   10.4204 H   0  0  0  0  0  0  0  0  0  0  0  0
   -5.2266  -24.6773    9.6392 H   0  0  0  0  0  0  0  0  0  0  0  0
   -5.1379  -23.7017    7.3329 H   0  0  0  0  0  0  0  0  0  0  0  0
  -12.0489  -26.6429    6.2896 H   0  0  0  0  0  0  0  0  0  0  0  0
  -11.2968  -27.5006    8.4768 H   0  0  0  0  0  0  0  0  0  0  0  0
  -13.2731  -24.1677   10.3247 H   0  0  0  0  0  0  0  0  0  0  0  0
  1  2  1  0
  2  3  1  0
  2  4  1  0
  4  5  2  0
  4  6  1  0
  6  7  1  0
  7  8  1  0
  8  9  1  0
  9 10  2  0
 10 11  1  0
 11 12  2  0
 12 13  1  0
 13 14  2  0
 14 15  1  0
 15 16  2  0
 16 17  1  0
  2 18  1  0
 18 19  2  0
 19 20  1  0
 20 21  2  0
 21 22  1  0
 21 23  1  0
 23 24  2  0
 17  9  1  0
 24 18  1  0
 16 11  1  0
  1 25  1  0
  1 26  1  0
  1 27  1  0
  3 28  1  0
  3 29  1  0
  3 30  1  0
  6 31  1  0
  7 32  1  0
  7 33  1  0
  8 34  1  0
  8 35  1  0
 12 36  1  0
 13 37  1  0
 14 38  1  0
 15 39  1  0
 19 40  1  0
 20 41  1  0
 23 42  1  0
M  END
>  <Energy>  (1123) 
71.987438546510262

>  <compound_id>  (1123) 
28038

>  <target_id>  (1123) 
1

>  <reference_id>  (1123) 
48

>  <inspiration_ids>  (1123) 
[48, 2]

>  <energy_score>  (1123) 
-31.540062031440634

>  <distance_score>  (1123) 
2.64937624269791

>  <path>  (1123) 
/opt/xchem-fragalysis-2/maxwin/BulkDock/SCRATCH/511017/C28038-P48/C28038-P48.minimised.mol

>  <scratch_subdir>  (1123) 
/opt/xchem-fragalysis-2/maxwin/BulkDock/SCRATCH/511017/C28038-P48

>  <fragmenstein_runtime>  (1123) 
2.1218645572662354

>  <fragmenstein_outcome>  (1123) 
too moved

>  <fragmenstein_mode>  (1123) 
expansion

>  <fragmenstein_error>  (1123) 


$$$$
C28038-P2
     RDKit          3D

 42 44  0  0  0  0  0  0  0  0999 V2000
  -14.7446  -24.6989    5.4766 C   0  0  0  0  0  0  0  0  0  0  0  0
  -13.5424  -25.6660    5.5967 C   0  0  0  0  0  0  0  0  0  0  0  0
  -14.1057  -27.0811    5.3095 C   0  0  0  0  0  0  0  0  0  0  0  0
  -12.4784  -25.3081    4.5118 C   0  0  0  0  0  0  0  0  0  0  0  0
  -12.2120  -26.0464    3.6459 O   0  0  0  0  0  0  0  0  0  0  0  0
  -11.9797  -23.8639    4.7916 N   0  0  0  0  0  0  0  0  0  0  0  0
  -10.9807  -23.0702    4.1165 C   0  0  0  0  0  0  0  0  0  0  0  0
   -9.5713  -23.3339    4.6353 C   0  0  0  0  0  0  0  0  0  0  0  0
   -9.4326  -22.8672    6.0344 C   0  0  0  0  0  0  0  0  0  0  0  0
   -9.5732  -21.6418    6.4998 N   0  0  0  0  0  0  0  0  0  0  0  0
   -9.3188  -21.7828    7.8372 C   0  0  0  0  0  0  0  0  0  0  0  0
   -9.2434  -20.8298    8.8515 C   0  0  0  0  0  0  0  0  0  0  0  0
   -8.8497  -21.2572   10.1279 C   0  0  0  0  0  0  0  0  0  0  0  0
   -8.6070  -22.6087   10.3984 C   0  0  0  0  0  0  0  0  0  0  0  0
   -8.7133  -23.5810    9.3979 C   0  0  0  0  0  0  0  0  0  0  0  0
   -9.0481  -23.1069    8.1368 C   0  0  0  0  0  0  0  0  0  0  0  0
   -9.1272  -23.8164    6.9746 O   0  0  0  0  0  0  0  0  0  0  0  0
  -12.9113  -25.6603    6.9947 C   0  0  0  0  0  0  0  0  0  0  0  0
  -11.9044  -26.5710    7.3336 C   0  0  0  0  0  0  0  0  0  0  0  0
  -11.4360  -26.6259    8.6472 C   0  0  0  0  0  0  0  0  0  0  0  0
  -11.9741  -25.7663    9.5911 C   0  0  0  0  0  0  0  0  0  0  0  0
  -11.4404  -25.8489   11.3949 Br  0  0  0  0  0  0  0  0  0  0  0  0
  -12.9336  -24.8622    9.1759 C   0  0  0  0  0  0  0  0  0  0  0  0
  -13.3993  -24.7787    7.9052 N   0  0  0  0  0  0  0  0  0  0  0  0
  -15.1228  -24.6738    4.4477 H   0  0  0  0  0  0  0  0  0  0  0  0
  -15.5699  -25.0104    6.1285 H   0  0  0  0  0  0  0  0  0  0  0  0
  -14.4986  -23.6677    5.7504 H   0  0  0  0  0  0  0  0  0  0  0  0
  -14.6262  -27.1093    4.3444 H   0  0  0  0  0  0  0  0  0  0  0  0
  -14.8185  -27.3911    6.0831 H   0  0  0  0  0  0  0  0  0  0  0  0
  -13.3186  -27.8422    5.2626 H   0  0  0  0  0  0  0  0  0  0  0  0
  -12.4799  -23.4801    5.5894 H   0  0  0  0  0  0  0  0  0  0  0  0
  -11.0258  -23.3343    3.0548 H   0  0  0  0  0  0  0  0  0  0  0  0
  -11.2653  -22.0183    4.2247 H   0  0  0  0  0  0  0  0  0  0  0  0
   -8.8475  -22.7972    4.0118 H   0  0  0  0  0  0  0  0  0  0  0  0
   -9.3350  -24.4021    4.5647 H   0  0  0  0  0  0  0  0  0  0  0  0
   -9.4281  -19.7911    8.6170 H   0  0  0  0  0  0  0  0  0  0  0  0
   -8.7044  -20.5264   10.9206 H   0  0  0  0  0  0  0  0  0  0  0  0
   -8.2827  -22.8977   11.3967 H   0  0  0  0  0  0  0  0  0  0  0  0
   -8.4917  -24.6240    9.5802 H   0  0  0  0  0  0  0  0  0  0  0  0
  -11.4965  -27.2556    6.5945 H   0  0  0  0  0  0  0  0  0  0  0  0
  -10.6716  -27.3486    8.9177 H   0  0  0  0  0  0  0  0  0  0  0  0
  -13.3976  -24.1726    9.8708 H   0  0  0  0  0  0  0  0  0  0  0  0
  1  2  1  0
  2  3  1  0
  2  4  1  0
  4  5  2  0
  4  6  1  0
  6  7  1  0
  7  8  1  0
  8  9  1  0
  9 10  2  0
 10 11  1  0
 11 12  2  0
 12 13  1  0
 13 14  2  0
 14 15  1  0
 15 16  2  0
 16 17  1  0
  2 18  1  0
 18 19  2  0
 19 20  1  0
 20 21  2  0
 21 22  1  0
 21 23  1  0
 23 24  2  0
 17  9  1  0
 24 18  1  0
 16 11  1  0
  1 25  1  0
  1 26  1  0
  1 27  1  0
  3 28  1  0
  3 29  1  0
  3 30  1  0
  6 31  1  0
  7 32  1  0
  7 33  1  0
  8 34  1  0
  8 35  1  0
 12 36  1  0
 13 37  1  0
 14 38  1  0
 15 39  1  0
 19 40  1  0
 20 41  1  0
 23 42  1  0
M  END
>  <Energy>  (1124) 
67.835925074314659

>  <compound_id>  (1124) 
28038

>  <target_id>  (1124) 
1

>  <reference_id>  (1124) 
2

>  <inspiration_ids>  (1124) 
[48, 2]

>  <energy_score>  (1124) 
-35.69157550363509

>  <distance_score>  (1124) 
0.4957472734476666

>  <path>  (1124) 
/opt/xchem-fragalysis-2/maxwin/BulkDock/SCRATCH/511017/C28038-P2/C28038-P2.minimised.mol

>  <scratch_subdir>  (1124) 
/opt/xchem-fragalysis-2/maxwin/BulkDock/SCRATCH/511017/C28038-P2

>  <fragmenstein_runtime>  (1124) 
1.3997828960418701

>  <fragmenstein_outcome>  (1124) 
acceptable

>  <fragmenstein_mode>  (1124) 
expansion

>  <fragmenstein_error>  (1124) 


$$$$
C28039-P48
     RDKit          3D

 42 44  0  0  0  0  0  0  0  0999 V2000
  -13.9718  -22.8844    6.1392 C   0  0  0  0  0  0  0  0  0  0  0  0
  -13.7891  -24.4180    6.0630 C   0  0  0  0  0  0  0  0  0  0  0  0
  -15.2004  -25.0457    5.9830 C   0  0  0  0  0  0  0  0  0  0  0  0
  -13.0175  -24.7417    4.7426 C   0  0  0  0  0  0  0  0  0  0  0  0
  -13.5320  -25.3115    3.8613 O   0  0  0  0  0  0  0  0  0  0  0  0
  -11.5904  -24.1418    4.8549 N   0  0  0  0  0  0  0  0  0  0  0  0
  -10.5360  -24.0367    3.8709 C   0  0  0  0  0  0  0  0  0  0  0  0
   -9.2860  -23.3057    4.3599 C   0  0  0  0  0  0  0  0  0  0  0  0
   -8.6653  -23.9837    5.5216 C   0  0  0  0  0  0  0  0  0  0  0  0
   -9.2395  -24.7906    6.3873 N   0  0  0  0  0  0  0  0  0  0  0  0
   -8.2881  -24.9501    7.3575 C   0  0  0  0  0  0  0  0  0  0  0  0
   -8.3473  -25.5534    8.6214 C   0  0  0  0  0  0  0  0  0  0  0  0
   -7.2524  -25.4237    9.4866 C   0  0  0  0  0  0  0  0  0  0  0  0
   -6.0859  -24.7860    9.0660 C   0  0  0  0  0  0  0  0  0  0  0  0
   -5.9824  -24.2472    7.7772 C   0  0  0  0  0  0  0  0  0  0  0  0
   -7.1247  -24.3069    6.9869 C   0  0  0  0  0  0  0  0  0  0  0  0
   -7.3525  -23.6943    5.7852 O   0  0  0  0  0  0  0  0  0  0  0  0
  -13.1280  -24.9808    7.3272 C   0  0  0  0  0  0  0  0  0  0  0  0
  -12.4727  -26.2180    7.3344 C   0  0  0  0  0  0  0  0  0  0  0  0
  -11.9884  -26.7324    8.5402 C   0  0  0  0  0  0  0  0  0  0  0  0
  -12.1727  -26.0062    9.7036 C   0  0  0  0  0  0  0  0  0  0  0  0
  -11.7153  -26.4558   10.8798 F   0  0  0  0  0  0  0  0  0  0  0  0
  -12.8385  -24.8019    9.6294 C   0  0  0  0  0  0  0  0  0  0  0  0
  -13.3189  -24.2746    8.4779 N   0  0  0  0  0  0  0  0  0  0  0  0
  -14.3484  -22.4863    5.1895 H   0  0  0  0  0  0  0  0  0  0  0  0
  -14.6869  -22.6004    6.9206 H   0  0  0  0  0  0  0  0  0  0  0  0
  -13.0333  -22.3650    6.3607 H   0  0  0  0  0  0  0  0  0  0  0  0
  -15.7598  -24.6599    5.1225 H   0  0  0  0  0  0  0  0  0  0  0  0
  -15.7888  -24.8321    6.8835 H   0  0  0  0  0  0  0  0  0  0  0  0
  -15.1497  -26.1361    5.8756 H   0  0  0  0  0  0  0  0  0  0  0  0
  -11.5007  -23.6399    5.7363 H   0  0  0  0  0  0  0  0  0  0  0  0
  -10.9602  -23.5185    3.0042 H   0  0  0  0  0  0  0  0  0  0  0  0
  -10.2990  -25.0570    3.5485 H   0  0  0  0  0  0  0  0  0  0  0  0
   -8.5624  -23.2426    3.5395 H   0  0  0  0  0  0  0  0  0  0  0  0
   -9.5465  -22.2813    4.6506 H   0  0  0  0  0  0  0  0  0  0  0  0
   -9.2507  -26.0507    8.9441 H   0  0  0  0  0  0  0  0  0  0  0  0
   -7.3065  -25.8452   10.4872 H   0  0  0  0  0  0  0  0  0  0  0  0
   -5.2398  -24.7096    9.7462 H   0  0  0  0  0  0  0  0  0  0  0  0
   -5.0869  -23.7418    7.4402 H   0  0  0  0  0  0  0  0  0  0  0  0
  -12.3393  -26.7884    6.4193 H   0  0  0  0  0  0  0  0  0  0  0  0
  -11.4715  -27.6855    8.5665 H   0  0  0  0  0  0  0  0  0  0  0  0
  -13.0147  -24.2208   10.5273 H   0  0  0  0  0  0  0  0  0  0  0  0
  1  2  1  0
  2  3  1  0
  2  4  1  0
  4  5  2  0
  4  6  1  0
  6  7  1  0
  7  8  1  0
  8  9  1  0
  9 10  2  0
 10 11  1  0
 11 12  2  0
 12 13  1  0
 13 14  2  0
 14 15  1  0
 15 16  2  0
 16 17  1  0
  2 18  1  0
 18 19  2  0
 19 20  1  0
 20 21  2  0
 21 22  1  0
 21 23  1  0
 23 24  2  0
 17  9  1  0
 24 18  1  0
 16 11  1  0
  1 25  1  0
  1 26  1  0
  1 27  1  0
  3 28  1  0
  3 29  1  0
  3 30  1  0
  6 31  1  0
  7 32  1  0
  7 33  1  0
  8 34  1  0
  8 35  1  0
 12 36  1  0
 13 37  1  0
 14 38  1  0
 15 39  1  0
 19 40  1  0
 20 41  1  0
 23 42  1  0
M  END
>  <Energy>  (1125) 
76.667862068772152

>  <compound_id>  (1125) 
28039

>  <target_id>  (1125) 
1

>  <reference_id>  (1125) 
48

>  <inspiration_ids>  (1125) 
[48, 2]

>  <energy_score>  (1125) 
-30.491197812703902

>  <distance_score>  (1125) 
2.645124599687553

>  <path>  (1125) 
/opt/xchem-fragalysis-2/maxwin/BulkDock/SCRATCH/511017/C28039-P48/C28039-P48.minimised.mol

>  <scratch_subdir>  (1125) 
/opt/xchem-fragalysis-2/maxwin/BulkDock/SCRATCH/511017/C28039-P48

>  <fragmenstein_runtime>  (1125) 
1.719592571258545

>  <fragmenstein_outcome>  (1125) 
too moved

>  <fragmenstein_mode>  (1125) 
expansion

>  <fragmenstein_error>  (1125) 


$$$$
C28039-P2
     RDKit          3D

 42 44  0  0  0  0  0  0  0  0999 V2000
  -14.1985  -23.8130    5.7921 C   0  0  0  0  0  0  0  0  0  0  0  0
  -13.7080  -25.2712    5.9535 C   0  0  0  0  0  0  0  0  0  0  0  0
  -14.9499  -26.1731    5.7693 C   0  0  0  0  0  0  0  0  0  0  0  0
  -12.6635  -25.5795    4.8354 C   0  0  0  0  0  0  0  0  0  0  0  0
  -12.8601  -26.3599    3.9885 O   0  0  0  0  0  0  0  0  0  0  0  0
  -11.4295  -24.6756    5.1034 N   0  0  0  0  0  0  0  0  0  0  0  0
  -10.1497  -24.6169    4.4401 C   0  0  0  0  0  0  0  0  0  0  0  0
   -9.4705  -23.2553    4.5589 C   0  0  0  0  0  0  0  0  0  0  0  0
   -9.3335  -22.8054    5.9681 C   0  0  0  0  0  0  0  0  0  0  0  0
   -9.5497  -21.6016    6.4590 N   0  0  0  0  0  0  0  0  0  0  0  0
   -9.3016  -21.7539    7.7974 C   0  0  0  0  0  0  0  0  0  0  0  0
   -9.2858  -20.8201    8.8324 C   0  0  0  0  0  0  0  0  0  0  0  0
   -8.8852  -21.2551   10.1048 C   0  0  0  0  0  0  0  0  0  0  0  0
   -8.5839  -22.5989   10.3526 C   0  0  0  0  0  0  0  0  0  0  0  0
   -8.6291  -23.5536    9.3311 C   0  0  0  0  0  0  0  0  0  0  0  0
   -8.9645  -23.0677    8.0742 C   0  0  0  0  0  0  0  0  0  0  0  0
   -8.9769  -23.7520    6.8950 O   0  0  0  0  0  0  0  0  0  0  0  0
  -13.0722  -25.5258    7.3286 C   0  0  0  0  0  0  0  0  0  0  0  0
  -12.7399  -26.8212    7.7442 C   0  0  0  0  0  0  0  0  0  0  0  0
  -12.1662  -27.0161    9.0009 C   0  0  0  0  0  0  0  0  0  0  0  0
  -11.9186  -25.9171    9.8018 C   0  0  0  0  0  0  0  0  0  0  0  0
  -11.4026  -26.0701   11.0277 F   0  0  0  0  0  0  0  0  0  0  0  0
  -12.2177  -24.6625    9.3110 C   0  0  0  0  0  0  0  0  0  0  0  0
  -12.7828  -24.4405    8.0978 N   0  0  0  0  0  0  0  0  0  0  0  0
  -14.6097  -23.6494    4.7888 H   0  0  0  0  0  0  0  0  0  0  0  0
  -14.9843  -23.5772    6.5198 H   0  0  0  0  0  0  0  0  0  0  0  0
  -13.4011  -23.0743    5.9288 H   0  0  0  0  0  0  0  0  0  0  0  0
  -15.4595  -25.9531    4.8233 H   0  0  0  0  0  0  0  0  0  0  0  0
  -15.6721  -26.0262    6.5811 H   0  0  0  0  0  0  0  0  0  0  0  0
  -14.6928  -27.2378    5.7428 H   0  0  0  0  0  0  0  0  0  0  0  0
  -11.5601  -24.1719    5.9806 H   0  0  0  0  0  0  0  0  0  0  0  0
   -9.5304  -25.4038    4.8851 H   0  0  0  0  0  0  0  0  0  0  0  0
  -10.3022  -24.8833    3.3891 H   0  0  0  0  0  0  0  0  0  0  0  0
   -8.4796  -23.2962    4.0938 H   0  0  0  0  0  0  0  0  0  0  0  0
  -10.0576  -22.5098    4.0092 H   0  0  0  0  0  0  0  0  0  0  0  0
   -9.5205  -19.7862    8.6203 H   0  0  0  0  0  0  0  0  0  0  0  0
   -8.7843  -20.5344   10.9137 H   0  0  0  0  0  0  0  0  0  0  0  0
   -8.2565  -22.8924   11.3488 H   0  0  0  0  0  0  0  0  0  0  0  0
   -8.3568  -24.5879    9.4947 H   0  0  0  0  0  0  0  0  0  0  0  0
  -12.9260  -27.6815    7.1072 H   0  0  0  0  0  0  0  0  0  0  0  0
  -11.9216  -28.0125    9.3535 H   0  0  0  0  0  0  0  0  0  0  0  0
  -11.9939  -23.7793    9.8970 H   0  0  0  0  0  0  0  0  0  0  0  0
  1  2  1  0
  2  3  1  0
  2  4  1  0
  4  5  2  0
  4  6  1  0
  6  7  1  0
  7  8  1  0
  8  9  1  0
  9 10  2  0
 10 11  1  0
 11 12  2  0
 12 13  1  0
 13 14  2  0
 14 15  1  0
 15 16  2  0
 16 17  1  0
  2 18  1  0
 18 19  2  0
 19 20  1  0
 20 21  2  0
 21 22  1  0
 21 23  1  0
 23 24  2  0
 17  9  1  0
 24 18  1  0
 16 11  1  0
  1 25  1  0
  1 26  1  0
  1 27  1  0
  3 28  1  0
  3 29  1  0
  3 30  1  0
  6 31  1  0
  7 32  1  0
  7 33  1  0
  8 34  1  0
  8 35  1  0
 12 36  1  0
 13 37  1  0
 14 38  1  0
 15 39  1  0
 19 40  1  0
 20 41  1  0
 23 42  1  0
M  END
>  <Energy>  (1126) 
71.955531775026103

>  <compound_id>  (1126) 
28039

>  <target_id>  (1126) 
1

>  <reference_id>  (1126) 
2

>  <inspiration_ids>  (1126) 
[48, 2]

>  <energy_score>  (1126) 
-35.20352810644872

>  <distance_score>  (1126) 
0.45026033265321197

>  <path>  (1126) 
/opt/xchem-fragalysis-2/maxwin/BulkDock/SCRATCH/511017/C28039-P2/C28039-P2.minimised.mol

>  <scratch_subdir>  (1126) 
/opt/xchem-fragalysis-2/maxwin/BulkDock/SCRATCH/511017/C28039-P2

>  <fragmenstein_runtime>  (1126) 
1.6934475898742676

>  <fragmenstein_outcome>  (1126) 
acceptable

>  <fragmenstein_mode>  (1126) 
expansion

>  <fragmenstein_error>  (1126) 


$$$$
C28047-P48
     RDKit          3D

 37 40  0  0  0  0  0  0  0  0999 V2000
   -7.9241  -26.6913    6.0105 C   0  0  0  0  0  0  0  0  0  0  0  0
   -9.3022  -26.5707    6.6818 N   0  0  0  0  0  0  0  0  0  0  0  0
   -9.6900  -26.5875    8.1386 C   0  0  0  0  0  0  0  0  0  0  0  0
   -9.0187  -26.6169    9.1055 O   0  0  0  0  0  0  0  0  0  0  0  0
  -11.1755  -26.4443    8.3351 C   0  0  0  0  0  0  0  0  0  0  0  0
  -11.6153  -25.9203    9.5519 C   0  0  0  0  0  0  0  0  0  0  0  0
  -12.9160  -25.4762    9.6314 C   0  0  0  0  0  0  0  0  0  0  0  0
  -13.7867  -25.5331    8.6033 N   0  0  0  0  0  0  0  0  0  0  0  0
  -13.3793  -26.0968    7.4368 C   0  0  0  0  0  0  0  0  0  0  0  0
  -14.3609  -26.1614    6.2905 C   0  0  0  0  0  0  0  0  0  0  0  0
  -14.0709  -25.4216    5.0029 C   0  0  0  0  0  0  0  0  0  0  0  0
  -15.1569  -24.9324    5.9124 C   0  0  0  0  0  0  0  0  0  0  0  0
  -12.0864  -26.5928    7.2892 C   0  0  0  0  0  0  0  0  0  0  0  0
   -9.1402  -25.1710    6.1814 C   0  0  0  0  0  0  0  0  0  0  0  0
   -8.3176  -24.4563    5.4127 N   0  0  0  0  0  0  0  0  0  0  0  0
   -8.8796  -23.2053    5.3713 C   0  0  0  0  0  0  0  0  0  0  0  0
   -8.4439  -22.0031    4.8102 C   0  0  0  0  0  0  0  0  0  0  0  0
   -9.2482  -20.8709    4.9862 C   0  0  0  0  0  0  0  0  0  0  0  0
  -10.4675  -20.9575    5.6586 C   0  0  0  0  0  0  0  0  0  0  0  0
  -10.9337  -22.1486    6.2022 C   0  0  0  0  0  0  0  0  0  0  0  0
  -10.0890  -23.2240    6.0210 C   0  0  0  0  0  0  0  0  0  0  0  0
  -10.2790  -24.4650    6.4925 O   0  0  0  0  0  0  0  0  0  0  0  0
   -7.6546  -27.7358    6.2332 H   0  0  0  0  0  0  0  0  0  0  0  0
   -7.1149  -26.1397    6.5186 H   0  0  0  0  0  0  0  0  0  0  0  0
   -7.9528  -26.6736    4.9092 H   0  0  0  0  0  0  0  0  0  0  0  0
  -10.9396  -25.7927   10.3909 H   0  0  0  0  0  0  0  0  0  0  0  0
  -13.3028  -25.0311   10.5433 H   0  0  0  0  0  0  0  0  0  0  0  0
  -14.8877  -27.1079    6.1971 H   0  0  0  0  0  0  0  0  0  0  0  0
  -14.3616  -25.8940    4.0719 H   0  0  0  0  0  0  0  0  0  0  0  0
  -13.1686  -24.8234    4.9331 H   0  0  0  0  0  0  0  0  0  0  0  0
  -16.1867  -25.0752    5.6072 H   0  0  0  0  0  0  0  0  0  0  0  0
  -14.9847  -24.0177    6.4691 H   0  0  0  0  0  0  0  0  0  0  0  0
  -11.7820  -26.9979    6.3302 H   0  0  0  0  0  0  0  0  0  0  0  0
   -7.5054  -21.9573    4.2705 H   0  0  0  0  0  0  0  0  0  0  0  0
   -8.9418  -19.9173    4.5620 H   0  0  0  0  0  0  0  0  0  0  0  0
  -11.0914  -20.0766    5.6748 H   0  0  0  0  0  0  0  0  0  0  0  0
  -11.8723  -22.2423    6.7276 H   0  0  0  0  0  0  0  0  0  0  0  0
  1  2  1  0
  2  3  1  0
  3  4  2  0
  3  5  1  0
  5  6  2  0
  6  7  1  0
  7  8  2  0
  8  9  1  0
  9 10  1  0
 10 11  1  0
 11 12  1  0
  9 13  2  0
  2 14  1  0
 14 15  2  0
 15 16  1  0
 16 17  2  0
 17 18  1  0
 18 19  2  0
 19 20  1  0
 20 21  2  0
 21 22  1  0
 13  5  1  0
 22 14  1  0
 12 10  1  0
 21 16  1  0
  1 23  1  0
  1 24  1  0
  1 25  1  0
  6 26  1  0
  7 27  1  0
 10 28  1  0
 11 29  1  0
 11 30  1  0
 12 31  1  0
 12 32  1  0
 13 33  1  0
 17 34  1  0
 18 35  1  0
 19 36  1  0
 20 37  1  0
M  END
>  <Energy>  (1127) 
91.744838192377813

>  <compound_id>  (1127) 
28047

>  <target_id>  (1127) 
1

>  <reference_id>  (1127) 
48

>  <inspiration_ids>  (1127) 
[48, 2]

>  <energy_score>  (1127) 
38.21133721541183

>  <distance_score>  (1127) 
3.0546124804024215

>  <path>  (1127) 
/opt/xchem-fragalysis-2/maxwin/BulkDock/SCRATCH/511017/C28047-P48/C28047-P48.minimised.mol

>  <scratch_subdir>  (1127) 
/opt/xchem-fragalysis-2/maxwin/BulkDock/SCRATCH/511017/C28047-P48

>  <fragmenstein_runtime>  (1127) 
1.334758996963501

>  <fragmenstein_outcome>  (1127) 
too moved

>  <fragmenstein_mode>  (1127) 
expansion

>  <fragmenstein_error>  (1127) 


$$$$
C28047-P2
     RDKit          3D

 37 40  0  0  0  0  0  0  0  0999 V2000
   -9.4072  -23.7571    4.6805 C   0  0  0  0  0  0  0  0  0  0  0  0
  -10.4448  -24.3375    5.6715 N   0  0  0  0  0  0  0  0  0  0  0  0
  -10.6174  -25.7325    6.2036 C   0  0  0  0  0  0  0  0  0  0  0  0
   -9.9560  -26.6910    6.0524 O   0  0  0  0  0  0  0  0  0  0  0  0
  -11.7897  -25.7431    7.1214 C   0  0  0  0  0  0  0  0  0  0  0  0
  -11.5966  -26.1270    8.4457 C   0  0  0  0  0  0  0  0  0  0  0  0
  -12.6008  -25.8276    9.3372 C   0  0  0  0  0  0  0  0  0  0  0  0
  -13.7466  -25.2055    8.9870 N   0  0  0  0  0  0  0  0  0  0  0  0
  -13.9452  -24.8752    7.6861 C   0  0  0  0  0  0  0  0  0  0  0  0
  -15.2319  -24.1778    7.3125 C   0  0  0  0  0  0  0  0  0  0  0  0
  -15.2013  -22.7775    6.7407 C   0  0  0  0  0  0  0  0  0  0  0  0
  -15.7118  -23.0002    8.1317 C   0  0  0  0  0  0  0  0  0  0  0  0
  -12.9803  -25.1465    6.7271 C   0  0  0  0  0  0  0  0  0  0  0  0
   -9.6600  -23.5175    6.5845 C   0  0  0  0  0  0  0  0  0  0  0  0
   -9.7127  -22.2018    6.7545 N   0  0  0  0  0  0  0  0  0  0  0  0
   -9.2895  -22.0306    8.0548 C   0  0  0  0  0  0  0  0  0  0  0  0
   -9.1783  -20.8950    8.8597 C   0  0  0  0  0  0  0  0  0  0  0  0
   -8.7155  -21.0757   10.1767 C   0  0  0  0  0  0  0  0  0  0  0  0
   -8.3931  -22.3383   10.6829 C   0  0  0  0  0  0  0  0  0  0  0  0
   -8.4981  -23.4759    9.8906 C   0  0  0  0  0  0  0  0  0  0  0  0
   -8.9383  -23.2527    8.5968 C   0  0  0  0  0  0  0  0  0  0  0  0
   -9.1289  -24.1959    7.6496 O   0  0  0  0  0  0  0  0  0  0  0  0
   -8.3618  -24.0446    4.8869 H   0  0  0  0  0  0  0  0  0  0  0  0
   -9.5729  -22.6983    4.4310 H   0  0  0  0  0  0  0  0  0  0  0  0
   -9.6353  -24.2972    3.7498 H   0  0  0  0  0  0  0  0  0  0  0  0
  -10.6663  -26.5759    8.7744 H   0  0  0  0  0  0  0  0  0  0  0  0
  -12.5086  -26.0707   10.3918 H   0  0  0  0  0  0  0  0  0  0  0  0
  -16.0118  -24.8361    6.9373 H   0  0  0  0  0  0  0  0  0  0  0  0
  -15.9227  -22.5278    5.9708 H   0  0  0  0  0  0  0  0  0  0  0  0
  -14.2477  -22.2742    6.6283 H   0  0  0  0  0  0  0  0  0  0  0  0
  -16.7776  -22.9110    8.3074 H   0  0  0  0  0  0  0  0  0  0  0  0
  -15.1004  -22.6675    8.9628 H   0  0  0  0  0  0  0  0  0  0  0  0
  -13.1338  -24.8298    5.7004 H   0  0  0  0  0  0  0  0  0  0  0  0
   -9.4219  -19.9149    8.4689 H   0  0  0  0  0  0  0  0  0  0  0  0
   -8.5702  -20.2223   10.8314 H   0  0  0  0  0  0  0  0  0  0  0  0
   -8.0002  -22.4219   11.6943 H   0  0  0  0  0  0  0  0  0  0  0  0
   -8.2296  -24.4600   10.2499 H   0  0  0  0  0  0  0  0  0  0  0  0
  1  2  1  0
  2  3  1  0
  3  4  2  0
  3  5  1  0
  5  6  2  0
  6  7  1  0
  7  8  2  0
  8  9  1  0
  9 10  1  0
 10 11  1  0
 11 12  1  0
  9 13  2  0
  2 14  1  0
 14 15  2  0
 15 16  1  0
 16 17  2  0
 17 18  1  0
 18 19  2  0
 19 20  1  0
 20 21  2  0
 21 22  1  0
 13  5  1  0
 22 14  1  0
 12 10  1  0
 21 16  1  0
  1 23  1  0
  1 24  1  0
  1 25  1  0
  6 26  1  0
  7 27  1  0
 10 28  1  0
 11 29  1  0
 11 30  1  0
 12 31  1  0
 12 32  1  0
 13 33  1  0
 17 34  1  0
 18 35  1  0
 19 36  1  0
 20 37  1  0
M  END
>  <Energy>  (1128) 
89.358996759180002

>  <compound_id>  (1128) 
28047

>  <target_id>  (1128) 
1

>  <reference_id>  (1128) 
2

>  <inspiration_ids>  (1128) 
[48, 2]

>  <energy_score>  (1128) 
35.82549578221538

>  <distance_score>  (1128) 
1.4239807147842916

>  <path>  (1128) 
/opt/xchem-fragalysis-2/maxwin/BulkDock/SCRATCH/511017/C28047-P2/C28047-P2.minimised.mol

>  <scratch_subdir>  (1128) 
/opt/xchem-fragalysis-2/maxwin/BulkDock/SCRATCH/511017/C28047-P2

>  <fragmenstein_runtime>  (1128) 
1.3475596904754639

>  <fragmenstein_outcome>  (1128) 
too moved

>  <fragmenstein_mode>  (1128) 
expansion

>  <fragmenstein_error>  (1128) 


$$$$
C28048-P48
     RDKit          3D

 40 43  0  0  0  0  0  0  0  0999 V2000
   -9.2633  -27.9791    7.4469 O   0  0  0  0  0  0  0  0  0  0  0  0
   -9.4455  -26.8734    7.7584 C   0  0  0  0  0  0  0  0  0  0  0  0
   -8.5177  -25.6524    7.6842 N   0  0  0  0  0  0  0  0  0  0  0  0
   -7.1934  -25.5112    7.1196 C   0  0  0  0  0  0  0  0  0  0  0  0
   -7.2506  -25.1134    5.6250 C   0  0  0  0  0  0  0  0  0  0  0  0
   -8.1388  -23.9629    5.3987 C   0  0  0  0  0  0  0  0  0  0  0  0
   -7.8734  -22.7425    4.9777 N   0  0  0  0  0  0  0  0  0  0  0  0
   -9.0661  -22.1027    5.1542 C   0  0  0  0  0  0  0  0  0  0  0  0
   -9.4012  -20.7643    4.9892 C   0  0  0  0  0  0  0  0  0  0  0  0
  -10.6979  -20.4105    5.3305 C   0  0  0  0  0  0  0  0  0  0  0  0
  -11.6030  -21.3413    5.8624 C   0  0  0  0  0  0  0  0  0  0  0  0
  -11.2618  -22.6591    6.1058 C   0  0  0  0  0  0  0  0  0  0  0  0
   -9.9950  -22.9764    5.6871 C   0  0  0  0  0  0  0  0  0  0  0  0
   -9.4341  -24.1937    5.7437 O   0  0  0  0  0  0  0  0  0  0  0  0
  -10.7876  -26.4449    8.2279 C   0  0  0  0  0  0  0  0  0  0  0  0
  -10.9992  -25.9736    9.5148 C   0  0  0  0  0  0  0  0  0  0  0  0
  -12.2334  -25.4151    9.7787 C   0  0  0  0  0  0  0  0  0  0  0  0
  -13.2270  -25.3140    8.8665 N   0  0  0  0  0  0  0  0  0  0  0  0
  -13.0319  -25.8380    7.6281 C   0  0  0  0  0  0  0  0  0  0  0  0
  -14.1530  -25.7500    6.6202 C   0  0  0  0  0  0  0  0  0  0  0  0
  -15.5689  -26.0803    7.0337 C   0  0  0  0  0  0  0  0  0  0  0  0
  -14.8241  -27.0113    6.1254 C   0  0  0  0  0  0  0  0  0  0  0  0
  -11.8124  -26.4086    7.2833 C   0  0  0  0  0  0  0  0  0  0  0  0
   -9.0335  -24.8128    7.9683 H   0  0  0  0  0  0  0  0  0  0  0  0
   -6.6747  -24.7427    7.7017 H   0  0  0  0  0  0  0  0  0  0  0  0
   -6.6654  -26.4632    7.2297 H   0  0  0  0  0  0  0  0  0  0  0  0
   -6.2381  -24.8908    5.2717 H   0  0  0  0  0  0  0  0  0  0  0  0
   -7.6177  -25.9648    5.0391 H   0  0  0  0  0  0  0  0  0  0  0  0
   -8.7025  -20.0469    4.5803 H   0  0  0  0  0  0  0  0  0  0  0  0
  -11.0272  -19.3999    5.0951 H   0  0  0  0  0  0  0  0  0  0  0  0
  -12.6410  -21.0532    5.9881 H   0  0  0  0  0  0  0  0  0  0  0  0
  -11.9459  -23.3855    6.5138 H   0  0  0  0  0  0  0  0  0  0  0  0
  -10.2192  -26.0082   10.2655 H   0  0  0  0  0  0  0  0  0  0  0  0
  -12.4670  -25.0087   10.7590 H   0  0  0  0  0  0  0  0  0  0  0  0
  -14.0522  -24.9445    5.8967 H   0  0  0  0  0  0  0  0  0  0  0  0
  -15.7461  -26.3970    8.0559 H   0  0  0  0  0  0  0  0  0  0  0  0
  -16.3687  -25.4827    6.6126 H   0  0  0  0  0  0  0  0  0  0  0  0
  -15.1200  -27.0511    5.0835 H   0  0  0  0  0  0  0  0  0  0  0  0
  -14.5110  -27.9663    6.5330 H   0  0  0  0  0  0  0  0  0  0  0  0
  -11.6437  -26.7798    6.2768 H   0  0  0  0  0  0  0  0  0  0  0  0
  1  2  2  0
  2  3  1  0
  3  4  1  0
  4  5  1  0
  5  6  1  0
  6  7  2  0
  7  8  1  0
  8  9  2  0
  9 10  1  0
 10 11  2  0
 11 12  1  0
 12 13  2  0
 13 14  1  0
  2 15  1  0
 15 16  2  0
 16 17  1  0
 17 18  2  0
 18 19  1  0
 19 20  1  0
 20 21  1  0
 21 22  1  0
 19 23  2  0
 14  6  1  0
 23 15  1  0
 13  8  1  0
 22 20  1  0
  3 24  1  0
  4 25  1  0
  4 26  1  0
  5 27  1  0
  5 28  1  0
  9 29  1  0
 10 30  1  0
 11 31  1  0
 12 32  1  0
 16 33  1  0
 17 34  1  0
 20 35  1  0
 21 36  1  0
 21 37  1  0
 22 38  1  0
 22 39  1  0
 23 40  1  0
M  END
>  <Energy>  (1129) 
45.922181940910988

>  <compound_id>  (1129) 
28048

>  <target_id>  (1129) 
1

>  <reference_id>  (1129) 
48

>  <inspiration_ids>  (1129) 
[48, 2]

>  <energy_score>  (1129) 
-4.76292959741631

>  <distance_score>  (1129) 
2.8970897833113662

>  <path>  (1129) 
/opt/xchem-fragalysis-2/maxwin/BulkDock/SCRATCH/511017/C28048-P48/C28048-P48.minimised.mol

>  <scratch_subdir>  (1129) 
/opt/xchem-fragalysis-2/maxwin/BulkDock/SCRATCH/511017/C28048-P48

>  <fragmenstein_runtime>  (1129) 
2.0664570331573486

>  <fragmenstein_outcome>  (1129) 
too moved

>  <fragmenstein_mode>  (1129) 
expansion

>  <fragmenstein_error>  (1129) 


$$$$
C28048-P2
     RDKit          3D

 40 43  0  0  0  0  0  0  0  0999 V2000
   -9.8118  -26.9473    7.0119 O   0  0  0  0  0  0  0  0  0  0  0  0
  -10.6210  -26.1657    6.7126 C   0  0  0  0  0  0  0  0  0  0  0  0
  -10.6652  -25.1760    5.5330 N   0  0  0  0  0  0  0  0  0  0  0  0
   -9.6779  -24.8736    4.5270 C   0  0  0  0  0  0  0  0  0  0  0  0
   -9.2479  -23.3988    4.5876 C   0  0  0  0  0  0  0  0  0  0  0  0
   -9.1323  -22.8687    5.9769 C   0  0  0  0  0  0  0  0  0  0  0  0
   -9.4806  -21.6780    6.4294 N   0  0  0  0  0  0  0  0  0  0  0  0
   -9.2504  -21.7696    7.7811 C   0  0  0  0  0  0  0  0  0  0  0  0
   -9.3340  -20.8159    8.7963 C   0  0  0  0  0  0  0  0  0  0  0  0
   -8.9328  -21.1959   10.0883 C   0  0  0  0  0  0  0  0  0  0  0  0
   -8.5393  -22.5064   10.3774 C   0  0  0  0  0  0  0  0  0  0  0  0
   -8.4757  -23.4780    9.3761 C   0  0  0  0  0  0  0  0  0  0  0  0
   -8.8040  -23.0405    8.1005 C   0  0  0  0  0  0  0  0  0  0  0  0
   -8.6832  -23.7364    6.9378 O   0  0  0  0  0  0  0  0  0  0  0  0
  -11.7903  -25.9442    7.5956 C   0  0  0  0  0  0  0  0  0  0  0  0
  -11.5502  -25.7149    8.9466 C   0  0  0  0  0  0  0  0  0  0  0  0
  -12.6005  -25.2501    9.6998 C   0  0  0  0  0  0  0  0  0  0  0  0
  -13.8307  -25.0222    9.1939 N   0  0  0  0  0  0  0  0  0  0  0  0
  -14.0724  -25.3084    7.8885 C   0  0  0  0  0  0  0  0  0  0  0  0
  -15.4640  -25.0773    7.3490 C   0  0  0  0  0  0  0  0  0  0  0  0
  -15.7057  -24.0097    6.3052 C   0  0  0  0  0  0  0  0  0  0  0  0
  -16.2090  -23.8096    7.7025 C   0  0  0  0  0  0  0  0  0  0  0  0
  -13.0653  -25.7919    7.0658 C   0  0  0  0  0  0  0  0  0  0  0  0
  -11.4824  -24.5821    5.6199 H   0  0  0  0  0  0  0  0  0  0  0  0
  -10.0987  -25.1120    3.5457 H   0  0  0  0  0  0  0  0  0  0  0  0
   -8.8166  -25.5269    4.7024 H   0  0  0  0  0  0  0  0  0  0  0  0
  -10.0001  -22.7963    4.0630 H   0  0  0  0  0  0  0  0  0  0  0  0
   -8.3017  -23.2640    4.0529 H   0  0  0  0  0  0  0  0  0  0  0  0
   -9.6379  -19.8034    8.5652 H   0  0  0  0  0  0  0  0  0  0  0  0
   -8.9086  -20.4561   10.8856 H   0  0  0  0  0  0  0  0  0  0  0  0
   -8.2136  -22.7523   11.3867 H   0  0  0  0  0  0  0  0  0  0  0  0
   -8.1104  -24.4794    9.5626 H   0  0  0  0  0  0  0  0  0  0  0  0
  -10.5623  -25.8390    9.3751 H   0  0  0  0  0  0  0  0  0  0  0  0
  -12.4804  -25.0243   10.7553 H   0  0  0  0  0  0  0  0  0  0  0  0
  -16.0769  -25.9729    7.2771 H   0  0  0  0  0  0  0  0  0  0  0  0
  -14.8790  -23.3875    5.9814 H   0  0  0  0  0  0  0  0  0  0  0  0
  -16.4350  -24.2149    5.5298 H   0  0  0  0  0  0  0  0  0  0  0  0
  -17.2753  -23.8860    7.8808 H   0  0  0  0  0  0  0  0  0  0  0  0
  -15.7113  -23.0747    8.3261 H   0  0  0  0  0  0  0  0  0  0  0  0
  -13.2695  -25.9984    6.0205 H   0  0  0  0  0  0  0  0  0  0  0  0
  1  2  2  0
  2  3  1  0
  3  4  1  0
  4  5  1  0
  5  6  1  0
  6  7  2  0
  7  8  1  0
  8  9  2  0
  9 10  1  0
 10 11  2  0
 11 12  1  0
 12 13  2  0
 13 14  1  0
  2 15  1  0
 15 16  2  0
 16 17  1  0
 17 18  2  0
 18 19  1  0
 19 20  1  0
 20 21  1  0
 21 22  1  0
 19 23  2  0
 14  6  1  0
 23 15  1  0
 13  8  1  0
 22 20  1  0
  3 24  1  0
  4 25  1  0
  4 26  1  0
  5 27  1  0
  5 28  1  0
  9 29  1  0
 10 30  1  0
 11 31  1  0
 12 32  1  0
 16 33  1  0
 17 34  1  0
 20 35  1  0
 21 36  1  0
 21 37  1  0
 22 38  1  0
 22 39  1  0
 23 40  1  0
M  END
>  <Energy>  (1130) 
46.761001587589135

>  <compound_id>  (1130) 
28048

>  <target_id>  (1130) 
1

>  <reference_id>  (1130) 
2

>  <inspiration_ids>  (1130) 
[48, 2]

>  <energy_score>  (1130) 
-3.924109950736998

>  <distance_score>  (1130) 
1.037819356044719

>  <path>  (1130) 
/opt/xchem-fragalysis-2/maxwin/BulkDock/SCRATCH/511017/C28048-P2/C28048-P2.minimised.mol

>  <scratch_subdir>  (1130) 
/opt/xchem-fragalysis-2/maxwin/BulkDock/SCRATCH/511017/C28048-P2

>  <fragmenstein_runtime>  (1130) 
1.800018072128296

>  <fragmenstein_outcome>  (1130) 
too moved

>  <fragmenstein_mode>  (1130) 
expansion

>  <fragmenstein_error>  (1130) 


$$$$
C28050-P48
     RDKit          3D

 39 42  0  0  0  0  0  0  0  0999 V2000
   -9.8881  -24.8006    2.9800 C   0  0  0  0  0  0  0  0  0  0  0  0
  -11.1216  -24.5057    3.8161 C   0  0  0  0  0  0  0  0  0  0  0  0
  -11.8415  -25.7512    4.0303 O   0  0  0  0  0  0  0  0  0  0  0  0
  -13.1180  -25.5868    4.4661 C   0  0  0  0  0  0  0  0  0  0  0  0
  -13.9558  -24.9125    3.8863 O   0  0  0  0  0  0  0  0  0  0  0  0
  -13.3635  -26.2307    5.7902 C   0  0  0  0  0  0  0  0  0  0  0  0
  -14.3110  -25.6231    6.6308 C   0  0  0  0  0  0  0  0  0  0  0  0
  -14.5023  -26.0563    7.9391 C   0  0  0  0  0  0  0  0  0  0  0  0
  -13.7273  -27.0972    8.3778 C   0  0  0  0  0  0  0  0  0  0  0  0
  -12.8238  -27.7196    7.5944 N   0  0  0  0  0  0  0  0  0  0  0  0
  -12.6439  -27.3121    6.2980 C   0  0  0  0  0  0  0  0  0  0  0  0
  -11.6387  -28.1097    5.4895 C   0  0  0  0  0  0  0  0  0  0  0  0
  -11.6520  -29.6219    5.5529 C   0  0  0  0  0  0  0  0  0  0  0  0
  -12.0942  -28.9282    4.3015 C   0  0  0  0  0  0  0  0  0  0  0  0
  -10.7755  -24.0209    5.1995 C   0  0  0  0  0  0  0  0  0  0  0  0
  -11.5243  -23.2005    5.9179 N   0  0  0  0  0  0  0  0  0  0  0  0
  -11.5033  -23.7956    7.1519 C   0  0  0  0  0  0  0  0  0  0  0  0
  -12.2827  -23.5694    8.2970 C   0  0  0  0  0  0  0  0  0  0  0  0
  -12.0766  -24.3957    9.4272 C   0  0  0  0  0  0  0  0  0  0  0  0
  -11.1133  -25.4236    9.4145 C   0  0  0  0  0  0  0  0  0  0  0  0
  -10.3258  -25.6629    8.2732 C   0  0  0  0  0  0  0  0  0  0  0  0
  -10.5751  -24.8327    7.1751 C   0  0  0  0  0  0  0  0  0  0  0  0
  -10.0182  -24.9061    5.9350 O   0  0  0  0  0  0  0  0  0  0  0  0
  -10.1818  -25.1738    1.9929 H   0  0  0  0  0  0  0  0  0  0  0  0
   -9.2688  -25.5817    3.4357 H   0  0  0  0  0  0  0  0  0  0  0  0
   -9.2726  -23.9052    2.8468 H   0  0  0  0  0  0  0  0  0  0  0  0
  -11.7578  -23.7792    3.2973 H   0  0  0  0  0  0  0  0  0  0  0  0
  -14.8850  -24.7720    6.2655 H   0  0  0  0  0  0  0  0  0  0  0  0
  -15.2254  -25.5788    8.5891 H   0  0  0  0  0  0  0  0  0  0  0  0
  -13.8114  -27.4833    9.3886 H   0  0  0  0  0  0  0  0  0  0  0  0
  -10.6485  -27.6638    5.4267 H   0  0  0  0  0  0  0  0  0  0  0  0
  -12.4061  -30.1056    6.1642 H   0  0  0  0  0  0  0  0  0  0  0  0
  -10.6961  -30.1322    5.5475 H   0  0  0  0  0  0  0  0  0  0  0  0
  -13.1500  -28.9581    4.0571 H   0  0  0  0  0  0  0  0  0  0  0  0
  -11.4399  -28.9643    3.4380 H   0  0  0  0  0  0  0  0  0  0  0  0
  -13.0572  -22.8167    8.2748 H   0  0  0  0  0  0  0  0  0  0  0  0
  -12.6887  -24.2565   10.3154 H   0  0  0  0  0  0  0  0  0  0  0  0
  -10.9838  -26.0570   10.2894 H   0  0  0  0  0  0  0  0  0  0  0  0
   -9.5954  -26.4595    8.2263 H   0  0  0  0  0  0  0  0  0  0  0  0
  1  2  1  0
  2  3  1  0
  3  4  1  0
  4  5  2  0
  4  6  1  0
  6  7  2  0
  7  8  1  0
  8  9  2  0
  9 10  1  0
 10 11  2  0
 11 12  1  0
 12 13  1  0
 13 14  1  0
  2 15  1  0
 15 16  2  0
 16 17  1  0
 17 18  2  0
 18 19  1  0
 19 20  2  0
 20 21  1  0
 21 22  2  0
 22 23  1  0
 11  6  1  0
 14 12  1  0
 23 15  1  0
 22 17  1  0
  1 24  1  0
  1 25  1  0
  1 26  1  0
  2 27  1  0
  7 28  1  0
  8 29  1  0
  9 30  1  0
 12 31  1  0
 13 32  1  0
 13 33  1  0
 14 34  1  0
 14 35  1  0
 18 36  1  0
 19 37  1  0
 20 38  1  0
 21 39  1  0
M  END
>  <Energy>  (1131) 
94.665039523160203

>  <compound_id>  (1131) 
28050

>  <target_id>  (1131) 
1

>  <reference_id>  (1131) 
48

>  <inspiration_ids>  (1131) 
[48, 2]

>  <energy_score>  (1131) 
-7.917014432459688

>  <distance_score>  (1131) 
3.4022121410014443

>  <path>  (1131) 
/opt/xchem-fragalysis-2/maxwin/BulkDock/SCRATCH/511017/C28050-P48/C28050-P48.minimised.mol

>  <scratch_subdir>  (1131) 
/opt/xchem-fragalysis-2/maxwin/BulkDock/SCRATCH/511017/C28050-P48

>  <fragmenstein_runtime>  (1131) 
2.0216147899627686

>  <fragmenstein_outcome>  (1131) 
too moved

>  <fragmenstein_mode>  (1131) 
expansion

>  <fragmenstein_error>  (1131) 


$$$$
C28050-P2
     RDKit          3D

 39 42  0  0  0  0  0  0  0  0999 V2000
  -10.1852  -22.9050    3.7441 C   0  0  0  0  0  0  0  0  0  0  0  0
  -10.0014  -23.8578    4.9148 C   0  0  0  0  0  0  0  0  0  0  0  0
  -11.2887  -24.4155    5.2461 O   0  0  0  0  0  0  0  0  0  0  0  0
  -11.2211  -25.5869    5.9181 C   0  0  0  0  0  0  0  0  0  0  0  0
  -10.5577  -26.5512    5.5727 O   0  0  0  0  0  0  0  0  0  0  0  0
  -11.9762  -25.5164    7.1925 C   0  0  0  0  0  0  0  0  0  0  0  0
  -11.4556  -26.2647    8.2641 C   0  0  0  0  0  0  0  0  0  0  0  0
  -12.0026  -26.1373    9.5324 C   0  0  0  0  0  0  0  0  0  0  0  0
  -13.0614  -25.2697    9.6846 C   0  0  0  0  0  0  0  0  0  0  0  0
  -13.6043  -24.5634    8.6695 N   0  0  0  0  0  0  0  0  0  0  0  0
  -13.0813  -24.6835    7.4125 C   0  0  0  0  0  0  0  0  0  0  0  0
  -13.7897  -23.9079    6.3116 C   0  0  0  0  0  0  0  0  0  0  0  0
  -14.7207  -22.7620    6.6544 C   0  0  0  0  0  0  0  0  0  0  0  0
  -13.3966  -22.4773    6.0184 C   0  0  0  0  0  0  0  0  0  0  0  0
   -9.5436  -23.1459    6.1546 C   0  0  0  0  0  0  0  0  0  0  0  0
   -9.6726  -21.8777    6.5070 N   0  0  0  0  0  0  0  0  0  0  0  0
   -9.3253  -21.8764    7.8366 C   0  0  0  0  0  0  0  0  0  0  0  0
   -9.2558  -20.8424    8.7724 C   0  0  0  0  0  0  0  0  0  0  0  0
   -8.8219  -21.1609   10.0707 C   0  0  0  0  0  0  0  0  0  0  0  0
   -8.5099  -22.4741   10.4378 C   0  0  0  0  0  0  0  0  0  0  0  0
   -8.5856  -23.5188    9.5154 C   0  0  0  0  0  0  0  0  0  0  0  0
   -8.9776  -23.1554    8.2350 C   0  0  0  0  0  0  0  0  0  0  0  0
   -9.0792  -23.9686    7.1509 O   0  0  0  0  0  0  0  0  0  0  0  0
  -10.9263  -22.1295    3.9690 H   0  0  0  0  0  0  0  0  0  0  0  0
  -10.5569  -23.4481    2.8685 H   0  0  0  0  0  0  0  0  0  0  0  0
   -9.2438  -22.4139    3.4773 H   0  0  0  0  0  0  0  0  0  0  0  0
   -9.2870  -24.6410    4.6342 H   0  0  0  0  0  0  0  0  0  0  0  0
  -10.5969  -26.9158    8.1115 H   0  0  0  0  0  0  0  0  0  0  0  0
  -11.6057  -26.6899   10.3760 H   0  0  0  0  0  0  0  0  0  0  0  0
  -13.5300  -25.1213   10.6536 H   0  0  0  0  0  0  0  0  0  0  0  0
  -14.1007  -24.5085    5.4589 H   0  0  0  0  0  0  0  0  0  0  0  0
  -14.8566  -22.4868    7.6940 H   0  0  0  0  0  0  0  0  0  0  0  0
  -15.6128  -22.6381    6.0512 H   0  0  0  0  0  0  0  0  0  0  0  0
  -12.6172  -22.0270    6.6205 H   0  0  0  0  0  0  0  0  0  0  0  0
  -13.3909  -22.1537    4.9838 H   0  0  0  0  0  0  0  0  0  0  0  0
   -9.4935  -19.8274    8.4803 H   0  0  0  0  0  0  0  0  0  0  0  0
   -8.7001  -20.3752   10.8123 H   0  0  0  0  0  0  0  0  0  0  0  0
   -8.1504  -22.6700   11.4466 H   0  0  0  0  0  0  0  0  0  0  0  0
   -8.3137  -24.5345    9.7684 H   0  0  0  0  0  0  0  0  0  0  0  0
  1  2  1  0
  2  3  1  0
  3  4  1  0
  4  5  2  0
  4  6  1  0
  6  7  2  0
  7  8  1  0
  8  9  2  0
  9 10  1  0
 10 11  2  0
 11 12  1  0
 12 13  1  0
 13 14  1  0
  2 15  1  0
 15 16  2  0
 16 17  1  0
 17 18  2  0
 18 19  1  0
 19 20  2  0
 20 21  1  0
 21 22  2  0
 22 23  1  0
 11  6  1  0
 14 12  1  0
 23 15  1  0
 22 17  1  0
  1 24  1  0
  1 25  1  0
  1 26  1  0
  2 27  1  0
  7 28  1  0
  8 29  1  0
  9 30  1  0
 12 31  1  0
 13 32  1  0
 13 33  1  0
 14 34  1  0
 14 35  1  0
 18 36  1  0
 19 37  1  0
 20 38  1  0
 21 39  1  0
M  END
>  <Energy>  (1132) 
79.766740734599196

>  <compound_id>  (1132) 
28050

>  <target_id>  (1132) 
1

>  <reference_id>  (1132) 
2

>  <inspiration_ids>  (1132) 
[48, 2]

>  <energy_score>  (1132) 
-22.815313221018563

>  <distance_score>  (1132) 
0.7863164291057457

>  <path>  (1132) 
/opt/xchem-fragalysis-2/maxwin/BulkDock/SCRATCH/511017/C28050-P2/C28050-P2.minimised.mol

>  <scratch_subdir>  (1132) 
/opt/xchem-fragalysis-2/maxwin/BulkDock/SCRATCH/511017/C28050-P2

>  <fragmenstein_runtime>  (1132) 
1.5090930461883545

>  <fragmenstein_outcome>  (1132) 
acceptable

>  <fragmenstein_mode>  (1132) 
expansion

>  <fragmenstein_error>  (1132) 


$$$$
C28051-P48
     RDKit          3D

 36 39  0  0  0  0  0  0  0  0999 V2000
   -8.3904  -26.8114    8.9339 O   0  0  0  0  0  0  0  0  0  0  0  0
   -9.2373  -26.7820    8.0555 C   0  0  0  0  0  0  0  0  0  0  0  0
   -8.9856  -26.8910    6.7246 O   0  0  0  0  0  0  0  0  0  0  0  0
   -7.8894  -26.0610    6.2609 C   0  0  0  0  0  0  0  0  0  0  0  0
   -8.4626  -24.7347    5.8608 C   0  0  0  0  0  0  0  0  0  0  0  0
   -7.9305  -23.6931    5.2376 N   0  0  0  0  0  0  0  0  0  0  0  0
   -8.9284  -22.7505    5.2998 C   0  0  0  0  0  0  0  0  0  0  0  0
   -8.9643  -21.4040    4.9212 C   0  0  0  0  0  0  0  0  0  0  0  0
  -10.0857  -20.6610    5.2939 C   0  0  0  0  0  0  0  0  0  0  0  0
  -11.1753  -21.2782    5.9155 C   0  0  0  0  0  0  0  0  0  0  0  0
  -11.1850  -22.6184    6.2650 C   0  0  0  0  0  0  0  0  0  0  0  0
  -10.0301  -23.2851    5.9334 C   0  0  0  0  0  0  0  0  0  0  0  0
   -9.7650  -24.5671    6.2185 O   0  0  0  0  0  0  0  0  0  0  0  0
  -10.6849  -26.5119    8.3116 C   0  0  0  0  0  0  0  0  0  0  0  0
  -11.6446  -26.5742    7.3072 C   0  0  0  0  0  0  0  0  0  0  0  0
  -12.8936  -26.0609    7.5848 C   0  0  0  0  0  0  0  0  0  0  0  0
  -13.2429  -25.5304    8.7778 N   0  0  0  0  0  0  0  0  0  0  0  0
  -12.3351  -25.5270    9.7880 C   0  0  0  0  0  0  0  0  0  0  0  0
  -12.7928  -24.9548   11.1164 C   0  0  0  0  0  0  0  0  0  0  0  0
  -12.5030  -25.6789   12.4108 C   0  0  0  0  0  0  0  0  0  0  0  0
  -11.8426  -24.3600   12.1294 C   0  0  0  0  0  0  0  0  0  0  0  0
  -11.0505  -26.0271    9.5731 C   0  0  0  0  0  0  0  0  0  0  0  0
   -7.4476  -26.5553    5.3910 H   0  0  0  0  0  0  0  0  0  0  0  0
   -7.1151  -25.9384    7.0252 H   0  0  0  0  0  0  0  0  0  0  0  0
   -8.1333  -20.9526    4.3950 H   0  0  0  0  0  0  0  0  0  0  0  0
  -10.1460  -19.6066    5.0297 H   0  0  0  0  0  0  0  0  0  0  0  0
  -12.0907  -20.7189    6.0331 H   0  0  0  0  0  0  0  0  0  0  0  0
  -12.0147  -23.1019    6.7600 H   0  0  0  0  0  0  0  0  0  0  0  0
  -11.4148  -26.9366    6.3121 H   0  0  0  0  0  0  0  0  0  0  0  0
  -13.6723  -26.0446    6.8273 H   0  0  0  0  0  0  0  0  0  0  0  0
  -13.7681  -24.4713   11.0655 H   0  0  0  0  0  0  0  0  0  0  0  0
  -13.2900  -25.7061   13.1563 H   0  0  0  0  0  0  0  0  0  0  0  0
  -11.8897  -26.5722   12.3913 H   0  0  0  0  0  0  0  0  0  0  0  0
  -12.1806  -23.4956   12.6918 H   0  0  0  0  0  0  0  0  0  0  0  0
  -10.7774  -24.3506   11.9368 H   0  0  0  0  0  0  0  0  0  0  0  0
  -10.3092  -25.9932   10.3657 H   0  0  0  0  0  0  0  0  0  0  0  0
  1  2  2  0
  2  3  1  0
  3  4  1  0
  4  5  1  0
  5  6  2  0
  6  7  1  0
  7  8  2  0
  8  9  1  0
  9 10  2  0
 10 11  1  0
 11 12  2  0
 12 13  1  0
  2 14  1  0
 14 15  2  0
 15 16  1  0
 16 17  2  0
 17 18  1  0
 18 19  1  0
 19 20  1  0
 20 21  1  0
 18 22  2  0
 13  5  1  0
 22 14  1  0
 12  7  1  0
 21 19  1  0
  4 23  1  0
  4 24  1  0
  8 25  1  0
  9 26  1  0
 10 27  1  0
 11 28  1  0
 15 29  1  0
 16 30  1  0
 19 31  1  0
 20 32  1  0
 20 33  1  0
 21 34  1  0
 21 35  1  0
 22 36  1  0
M  END
>  <Energy>  (1133) 
58.100623197764833

>  <compound_id>  (1133) 
28051

>  <target_id>  (1133) 
1

>  <reference_id>  (1133) 
48

>  <inspiration_ids>  (1133) 
[48, 2]

>  <energy_score>  (1133) 
-8.706550631314418

>  <distance_score>  (1133) 
2.944942178807096

>  <path>  (1133) 
/opt/xchem-fragalysis-2/maxwin/BulkDock/SCRATCH/511017/C28051-P48/C28051-P48.minimised.mol

>  <scratch_subdir>  (1133) 
/opt/xchem-fragalysis-2/maxwin/BulkDock/SCRATCH/511017/C28051-P48

>  <fragmenstein_runtime>  (1133) 
1.5486843585968018

>  <fragmenstein_outcome>  (1133) 
too moved

>  <fragmenstein_mode>  (1133) 
expansion

>  <fragmenstein_error>  (1133) 


$$$$
C28051-P2
     RDKit          3D

 36 39  0  0  0  0  0  0  0  0999 V2000
  -10.0978  -27.5795    6.5761 O   0  0  0  0  0  0  0  0  0  0  0  0
  -10.4542  -26.4213    6.4001 C   0  0  0  0  0  0  0  0  0  0  0  0
   -9.8901  -25.6303    5.4520 O   0  0  0  0  0  0  0  0  0  0  0  0
  -10.0974  -24.1977    5.2794 C   0  0  0  0  0  0  0  0  0  0  0  0
   -9.6244  -23.4113    6.4536 C   0  0  0  0  0  0  0  0  0  0  0  0
   -9.8137  -22.1295    6.7220 N   0  0  0  0  0  0  0  0  0  0  0  0
   -9.3607  -22.0029    8.0146 C   0  0  0  0  0  0  0  0  0  0  0  0
   -9.3027  -20.9067    8.8775 C   0  0  0  0  0  0  0  0  0  0  0  0
   -8.7957  -21.1215   10.1716 C   0  0  0  0  0  0  0  0  0  0  0  0
   -8.3822  -22.3861   10.6005 C   0  0  0  0  0  0  0  0  0  0  0  0
   -8.4170  -23.4834    9.7427 C   0  0  0  0  0  0  0  0  0  0  0  0
   -8.8946  -23.2240    8.4679 C   0  0  0  0  0  0  0  0  0  0  0  0
   -8.9971  -24.1123    7.4474 O   0  0  0  0  0  0  0  0  0  0  0  0
  -11.5131  -25.8619    7.2573 C   0  0  0  0  0  0  0  0  0  0  0  0
  -12.7191  -25.4614    6.7114 C   0  0  0  0  0  0  0  0  0  0  0  0
  -13.6213  -24.8699    7.5661 C   0  0  0  0  0  0  0  0  0  0  0  0
  -13.3977  -24.6806    8.8861 N   0  0  0  0  0  0  0  0  0  0  0  0
  -12.2486  -25.1508    9.4323 C   0  0  0  0  0  0  0  0  0  0  0  0
  -12.0067  -24.9618   10.9104 C   0  0  0  0  0  0  0  0  0  0  0  0
  -11.9170  -26.1628   11.8241 C   0  0  0  0  0  0  0  0  0  0  0  0
  -13.1078  -25.2561   11.9033 C   0  0  0  0  0  0  0  0  0  0  0  0
  -11.2940  -25.7671    8.6340 C   0  0  0  0  0  0  0  0  0  0  0  0
  -11.1471  -23.9983    5.0503 H   0  0  0  0  0  0  0  0  0  0  0  0
   -9.5122  -23.9064    4.4013 H   0  0  0  0  0  0  0  0  0  0  0  0
   -9.6246  -19.9273    8.5468 H   0  0  0  0  0  0  0  0  0  0  0  0
   -8.7001  -20.2915   10.8658 H   0  0  0  0  0  0  0  0  0  0  0  0
   -7.9637  -22.4974   11.5994 H   0  0  0  0  0  0  0  0  0  0  0  0
   -8.0577  -24.4599   10.0383 H   0  0  0  0  0  0  0  0  0  0  0  0
  -12.9477  -25.5838    5.6595 H   0  0  0  0  0  0  0  0  0  0  0  0
  -14.5825  -24.5093    7.2083 H   0  0  0  0  0  0  0  0  0  0  0  0
  -11.3629  -24.1211   11.1602 H   0  0  0  0  0  0  0  0  0  0  0  0
  -12.0682  -27.1525   11.4075 H   0  0  0  0  0  0  0  0  0  0  0  0
  -11.1975  -26.1283   12.6341 H   0  0  0  0  0  0  0  0  0  0  0  0
  -14.0564  -25.6222   11.5256 H   0  0  0  0  0  0  0  0  0  0  0  0
  -13.1984  -24.6013   12.7621 H   0  0  0  0  0  0  0  0  0  0  0  0
  -10.3671  -26.1302    9.0683 H   0  0  0  0  0  0  0  0  0  0  0  0
  1  2  2  0
  2  3  1  0
  3  4  1  0
  4  5  1  0
  5  6  2  0
  6  7  1  0
  7  8  2  0
  8  9  1  0
  9 10  2  0
 10 11  1  0
 11 12  2  0
 12 13  1  0
  2 14  1  0
 14 15  2  0
 15 16  1  0
 16 17  2  0
 17 18  1  0
 18 19  1  0
 19 20  1  0
 20 21  1  0
 18 22  2  0
 13  5  1  0
 22 14  1  0
 12  7  1  0
 21 19  1  0
  4 23  1  0
  4 24  1  0
  8 25  1  0
  9 26  1  0
 10 27  1  0
 11 28  1  0
 15 29  1  0
 16 30  1  0
 19 31  1  0
 20 32  1  0
 20 33  1  0
 21 34  1  0
 21 35  1  0
 22 36  1  0
M  END
>  <Energy>  (1134) 
61.95376453547221

>  <compound_id>  (1134) 
28051

>  <target_id>  (1134) 
1

>  <reference_id>  (1134) 
2

>  <inspiration_ids>  (1134) 
[48, 2]

>  <energy_score>  (1134) 
-4.853409293606145

>  <distance_score>  (1134) 
1.228602819527168

>  <path>  (1134) 
/opt/xchem-fragalysis-2/maxwin/BulkDock/SCRATCH/511017/C28051-P2/C28051-P2.minimised.mol

>  <scratch_subdir>  (1134) 
/opt/xchem-fragalysis-2/maxwin/BulkDock/SCRATCH/511017/C28051-P2

>  <fragmenstein_runtime>  (1134) 
1.3515515327453613

>  <fragmenstein_outcome>  (1134) 
too moved

>  <fragmenstein_mode>  (1134) 
expansion

>  <fragmenstein_error>  (1134) 


$$$$
C28052-P48
     RDKit          3D

 36 39  0  0  0  0  0  0  0  0999 V2000
  -13.6986  -25.0890    5.2957 O   0  0  0  0  0  0  0  0  0  0  0  0
  -12.7872  -24.9090    6.0823 C   0  0  0  0  0  0  0  0  0  0  0  0
  -11.6929  -24.1515    5.8503 O   0  0  0  0  0  0  0  0  0  0  0  0
  -12.0267  -22.7785    5.6109 C   0  0  0  0  0  0  0  0  0  0  0  0
  -11.5639  -22.0030    6.7976 C   0  0  0  0  0  0  0  0  0  0  0  0
  -10.8223  -20.9103    6.8273 N   0  0  0  0  0  0  0  0  0  0  0  0
  -10.5427  -20.7609    8.1650 C   0  0  0  0  0  0  0  0  0  0  0  0
   -9.5322  -20.0544    8.8498 C   0  0  0  0  0  0  0  0  0  0  0  0
   -9.0440  -20.4296   10.3760 C   0  0  0  0  0  0  0  0  0  0  0  0
   -9.6708  -21.4277   11.2014 C   0  0  0  0  0  0  0  0  0  0  0  0
  -10.6532  -22.1828   10.4987 C   0  0  0  0  0  0  0  0  0  0  0  0
  -11.1608  -21.7436    8.9333 C   0  0  0  0  0  0  0  0  0  0  0  0
  -11.9476  -22.4736    8.0491 O   0  0  0  0  0  0  0  0  0  0  0  0
  -12.7322  -25.3874    7.4747 C   0  0  0  0  0  0  0  0  0  0  0  0
  -11.5449  -25.9023    8.0134 C   0  0  0  0  0  0  0  0  0  0  0  0
  -11.4759  -26.1787    9.3707 C   0  0  0  0  0  0  0  0  0  0  0  0
  -12.5942  -25.9204   10.1336 C   0  0  0  0  0  0  0  0  0  0  0  0
  -13.7519  -25.4403    9.6327 N   0  0  0  0  0  0  0  0  0  0  0  0
  -13.8409  -25.1797    8.2993 C   0  0  0  0  0  0  0  0  0  0  0  0
  -15.1678  -24.6415    7.7908 C   0  0  0  0  0  0  0  0  0  0  0  0
  -16.1383  -23.9509    8.7244 C   0  0  0  0  0  0  0  0  0  0  0  0
  -15.3910  -23.1489    7.7040 C   0  0  0  0  0  0  0  0  0  0  0  0
  -13.0992  -22.6174    5.4510 H   0  0  0  0  0  0  0  0  0  0  0  0
  -11.4909  -22.4539    4.7137 H   0  0  0  0  0  0  0  0  0  0  0  0
   -8.9528  -19.3962    8.2111 H   0  0  0  0  0  0  0  0  0  0  0  0
   -8.1063  -20.0323   10.7528 H   0  0  0  0  0  0  0  0  0  0  0  0
   -9.3465  -21.6696   12.2028 H   0  0  0  0  0  0  0  0  0  0  0  0
  -11.1377  -23.0601   10.9378 H   0  0  0  0  0  0  0  0  0  0  0  0
  -10.6670  -26.0367    7.3859 H   0  0  0  0  0  0  0  0  0  0  0  0
  -10.5670  -26.5638    9.8185 H   0  0  0  0  0  0  0  0  0  0  0  0
  -12.5981  -26.1074   11.2039 H   0  0  0  0  0  0  0  0  0  0  0  0
  -15.6393  -25.2504    7.0210 H   0  0  0  0  0  0  0  0  0  0  0  0
  -15.8638  -23.8315    9.7665 H   0  0  0  0  0  0  0  0  0  0  0  0
  -17.1965  -24.1230    8.5659 H   0  0  0  0  0  0  0  0  0  0  0  0
  -15.9393  -22.7722    6.8483 H   0  0  0  0  0  0  0  0  0  0  0  0
  -14.6269  -22.4791    8.0753 H   0  0  0  0  0  0  0  0  0  0  0  0
  1  2  2  0
  2  3  1  0
  3  4  1  0
  4  5  1  0
  5  6  2  0
  6  7  1  0
  7  8  2  0
  8  9  1  0
  9 10  2  0
 10 11  1  0
 11 12  2  0
 12 13  1  0
  2 14  1  0
 14 15  2  0
 15 16  1  0
 16 17  2  0
 17 18  1  0
 18 19  2  0
 19 20  1  0
 20 21  1  0
 21 22  1  0
 13  5  1  0
 19 14  1  0
 22 20  1  0
 12  7  1  0
  4 23  1  0
  4 24  1  0
  8 25  1  0
  9 26  1  0
 10 27  1  0
 11 28  1  0
 15 29  1  0
 16 30  1  0
 17 31  1  0
 20 32  1  0
 21 33  1  0
 21 34  1  0
 22 35  1  0
 22 36  1  0
M  END
>  <Energy>  (1135) 
131.87811831762423

>  <compound_id>  (1135) 
28052

>  <target_id>  (1135) 
1

>  <reference_id>  (1135) 
48

>  <inspiration_ids>  (1135) 
[48, 2]

>  <energy_score>  (1135) 
24.877677409945353

>  <distance_score>  (1135) 
1.9633134071518643

>  <path>  (1135) 
/opt/xchem-fragalysis-2/maxwin/BulkDock/SCRATCH/511017/C28052-P48/C28052-P48.minimised.mol

>  <scratch_subdir>  (1135) 
/opt/xchem-fragalysis-2/maxwin/BulkDock/SCRATCH/511017/C28052-P48

>  <fragmenstein_runtime>  (1135) 
1.1745884418487549

>  <fragmenstein_outcome>  (1135) 
too moved

>  <fragmenstein_mode>  (1135) 
expansion

>  <fragmenstein_error>  (1135) 


$$$$
C28052-P2
     RDKit          3D

 36 39  0  0  0  0  0  0  0  0999 V2000
  -10.8003  -26.4478    5.4594 O   0  0  0  0  0  0  0  0  0  0  0  0
  -11.3819  -25.4574    5.8738 C   0  0  0  0  0  0  0  0  0  0  0  0
  -11.4031  -24.2627    5.2411 O   0  0  0  0  0  0  0  0  0  0  0  0
  -10.0969  -23.7682    4.9041 C   0  0  0  0  0  0  0  0  0  0  0  0
   -9.5944  -23.0941    6.1361 C   0  0  0  0  0  0  0  0  0  0  0  0
   -9.7013  -21.8292    6.5023 N   0  0  0  0  0  0  0  0  0  0  0  0
   -9.3406  -21.8498    7.8279 C   0  0  0  0  0  0  0  0  0  0  0  0
   -9.2512  -20.8281    8.7750 C   0  0  0  0  0  0  0  0  0  0  0  0
   -8.8117  -21.1662   10.0660 C   0  0  0  0  0  0  0  0  0  0  0  0
   -8.5125  -22.4874   10.4149 C   0  0  0  0  0  0  0  0  0  0  0  0
   -8.6080  -23.5209    9.4809 C   0  0  0  0  0  0  0  0  0  0  0  0
   -9.0066  -23.1384    8.2080 C   0  0  0  0  0  0  0  0  0  0  0  0
   -9.1332  -23.9377    7.1152 O   0  0  0  0  0  0  0  0  0  0  0  0
  -12.0650  -25.3918    7.1922 C   0  0  0  0  0  0  0  0  0  0  0  0
  -11.6390  -26.3185    8.1616 C   0  0  0  0  0  0  0  0  0  0  0  0
  -12.1048  -26.2271    9.4657 C   0  0  0  0  0  0  0  0  0  0  0  0
  -12.9880  -25.2114    9.7586 C   0  0  0  0  0  0  0  0  0  0  0  0
  -13.4345  -24.3203    8.8479 N   0  0  0  0  0  0  0  0  0  0  0  0
  -12.9948  -24.4076    7.5571 C   0  0  0  0  0  0  0  0  0  0  0  0
  -13.5680  -23.3715    6.6076 C   0  0  0  0  0  0  0  0  0  0  0  0
  -14.5193  -23.7920    5.5097 C   0  0  0  0  0  0  0  0  0  0  0  0
  -15.0363  -23.0099    6.6779 C   0  0  0  0  0  0  0  0  0  0  0  0
  -10.2098  -23.0447    4.0915 H   0  0  0  0  0  0  0  0  0  0  0  0
   -9.4246  -24.5648    4.5681 H   0  0  0  0  0  0  0  0  0  0  0  0
   -9.4810  -19.8082    8.4949 H   0  0  0  0  0  0  0  0  0  0  0  0
   -8.6750  -20.3900   10.8152 H   0  0  0  0  0  0  0  0  0  0  0  0
   -8.1491  -22.6995   11.4191 H   0  0  0  0  0  0  0  0  0  0  0  0
   -8.3495  -24.5432    9.7210 H   0  0  0  0  0  0  0  0  0  0  0  0
  -10.9143  -27.0885    7.9035 H   0  0  0  0  0  0  0  0  0  0  0  0
  -11.7776  -26.9220   10.2306 H   0  0  0  0  0  0  0  0  0  0  0  0
  -13.3823  -25.0842   10.7630 H   0  0  0  0  0  0  0  0  0  0  0  0
  -12.9077  -22.5334    6.3931 H   0  0  0  0  0  0  0  0  0  0  0  0
  -14.8093  -24.8339    5.4352 H   0  0  0  0  0  0  0  0  0  0  0  0
  -14.4377  -23.2865    4.5541 H   0  0  0  0  0  0  0  0  0  0  0  0
  -15.3072  -21.9721    6.5190 H   0  0  0  0  0  0  0  0  0  0  0  0
  -15.6634  -23.5227    7.3987 H   0  0  0  0  0  0  0  0  0  0  0  0
  1  2  2  0
  2  3  1  0
  3  4  1  0
  4  5  1  0
  5  6  2  0
  6  7  1  0
  7  8  2  0
  8  9  1  0
  9 10  2  0
 10 11  1  0
 11 12  2  0
 12 13  1  0
  2 14  1  0
 14 15  2  0
 15 16  1  0
 16 17  2  0
 17 18  1  0
 18 19  2  0
 19 20  1  0
 20 21  1  0
 21 22  1  0
 13  5  1  0
 19 14  1  0
 22 20  1  0
 12  7  1  0
  4 23  1  0
  4 24  1  0
  8 25  1  0
  9 26  1  0
 10 27  1  0
 11 28  1  0
 15 29  1  0
 16 30  1  0
 17 31  1  0
 20 32  1  0
 21 33  1  0
 21 34  1  0
 22 35  1  0
 22 36  1  0
M  END
>  <Energy>  (1136) 
78.944771350928448

>  <compound_id>  (1136) 
28052

>  <target_id>  (1136) 
1

>  <reference_id>  (1136) 
2

>  <inspiration_ids>  (1136) 
[48, 2]

>  <energy_score>  (1136) 
-28.0556695567495

>  <distance_score>  (1136) 
0.8298135925890805

>  <path>  (1136) 
/opt/xchem-fragalysis-2/maxwin/BulkDock/SCRATCH/511017/C28052-P2/C28052-P2.minimised.mol

>  <scratch_subdir>  (1136) 
/opt/xchem-fragalysis-2/maxwin/BulkDock/SCRATCH/511017/C28052-P2

>  <fragmenstein_runtime>  (1136) 
0.888746976852417

>  <fragmenstein_outcome>  (1136) 
acceptable

>  <fragmenstein_mode>  (1136) 
expansion

>  <fragmenstein_error>  (1136) 


$$$$
C28053-P48
     RDKit          3D

 36 39  0  0  0  0  0  0  0  0999 V2000
   -8.2965  -25.2119    3.2018 N   0  0  0  0  0  0  0  0  0  0  0  0
   -9.3347  -25.0942    3.7109 C   0  0  0  0  0  0  0  0  0  0  0  0
  -10.6433  -24.8908    4.3344 C   0  0  0  0  0  0  0  0  0  0  0  0
  -11.4655  -26.2149    4.3890 C   0  0  0  0  0  0  0  0  0  0  0  0
  -11.3977  -27.0868    3.5218 O   0  0  0  0  0  0  0  0  0  0  0  0
  -12.4195  -26.4732    5.5269 C   0  0  0  0  0  0  0  0  0  0  0  0
  -12.0970  -27.4551    6.4786 C   0  0  0  0  0  0  0  0  0  0  0  0
  -12.8452  -27.5491    7.6504 C   0  0  0  0  0  0  0  0  0  0  0  0
  -13.9044  -26.6775    7.8134 C   0  0  0  0  0  0  0  0  0  0  0  0
  -14.2742  -25.7660    6.8848 N   0  0  0  0  0  0  0  0  0  0  0  0
  -13.5532  -25.6720    5.7273 C   0  0  0  0  0  0  0  0  0  0  0  0
  -14.0240  -24.6449    4.7166 C   0  0  0  0  0  0  0  0  0  0  0  0
  -14.3396  -25.0425    3.2922 C   0  0  0  0  0  0  0  0  0  0  0  0
  -15.4557  -24.6962    4.2293 C   0  0  0  0  0  0  0  0  0  0  0  0
  -10.5020  -24.4131    5.7274 C   0  0  0  0  0  0  0  0  0  0  0  0
  -11.3895  -23.6456    6.3348 N   0  0  0  0  0  0  0  0  0  0  0  0
  -11.4344  -24.1915    7.5935 C   0  0  0  0  0  0  0  0  0  0  0  0
  -12.2697  -23.9252    8.6890 C   0  0  0  0  0  0  0  0  0  0  0  0
  -12.0023  -24.5830    9.9107 C   0  0  0  0  0  0  0  0  0  0  0  0
  -10.9510  -25.5111   10.0288 C   0  0  0  0  0  0  0  0  0  0  0  0
  -10.1361  -25.8300    8.9285 C   0  0  0  0  0  0  0  0  0  0  0  0
  -10.4224  -25.1439    7.7437 C   0  0  0  0  0  0  0  0  0  0  0  0
   -9.7727  -25.2371    6.5511 O   0  0  0  0  0  0  0  0  0  0  0  0
  -11.2250  -24.1724    3.7463 H   0  0  0  0  0  0  0  0  0  0  0  0
  -11.2334  -28.0991    6.3299 H   0  0  0  0  0  0  0  0  0  0  0  0
  -12.5973  -28.2739    8.4174 H   0  0  0  0  0  0  0  0  0  0  0  0
  -14.5152  -26.6971    8.7113 H   0  0  0  0  0  0  0  0  0  0  0  0
  -13.6354  -23.6408    4.8729 H   0  0  0  0  0  0  0  0  0  0  0  0
  -14.1066  -24.3369    2.5026 H   0  0  0  0  0  0  0  0  0  0  0  0
  -14.2449  -26.0817    2.9946 H   0  0  0  0  0  0  0  0  0  0  0  0
  -15.9724  -23.7537    4.0887 H   0  0  0  0  0  0  0  0  0  0  0  0
  -16.0933  -25.4980    4.5861 H   0  0  0  0  0  0  0  0  0  0  0  0
  -13.0991  -23.2394    8.5743 H   0  0  0  0  0  0  0  0  0  0  0  0
  -12.6345  -24.3797   10.7734 H   0  0  0  0  0  0  0  0  0  0  0  0
  -10.7721  -26.0008   10.9845 H   0  0  0  0  0  0  0  0  0  0  0  0
   -9.3172  -26.5350    8.9907 H   0  0  0  0  0  0  0  0  0  0  0  0
  1  2  3  0
  2  3  1  0
  3  4  1  0
  4  5  2  0
  4  6  1  0
  6  7  2  0
  7  8  1  0
  8  9  2  0
  9 10  1  0
 10 11  2  0
 11 12  1  0
 12 13  1  0
 13 14  1  0
  3 15  1  0
 15 16  2  0
 16 17  1  0
 17 18  2  0
 18 19  1  0
 19 20  2  0
 20 21  1  0
 21 22  2  0
 22 23  1  0
 11  6  1  0
 14 12  1  0
 23 15  1  0
 22 17  1  0
  3 24  1  0
  7 25  1  0
  8 26  1  0
  9 27  1  0
 12 28  1  0
 13 29  1  0
 13 30  1  0
 14 31  1  0
 14 32  1  0
 18 33  1  0
 19 34  1  0
 20 35  1  0
 21 36  1  0
M  END
>  <Energy>  (1137) 
86.294713540900801

>  <compound_id>  (1137) 
28053

>  <target_id>  (1137) 
1

>  <reference_id>  (1137) 
48

>  <inspiration_ids>  (1137) 
[48, 2]

>  <energy_score>  (1137) 
-17.393558616218037

>  <distance_score>  (1137) 
3.21676510884898

>  <path>  (1137) 
/opt/xchem-fragalysis-2/maxwin/BulkDock/SCRATCH/511017/C28053-P48/C28053-P48.minimised.mol

>  <scratch_subdir>  (1137) 
/opt/xchem-fragalysis-2/maxwin/BulkDock/SCRATCH/511017/C28053-P48

>  <fragmenstein_runtime>  (1137) 
1.3253538608551025

>  <fragmenstein_outcome>  (1137) 
too moved

>  <fragmenstein_mode>  (1137) 
expansion

>  <fragmenstein_error>  (1137) 


$$$$
C28053-P2
     RDKit          3D

 36 39  0  0  0  0  0  0  0  0999 V2000
   -7.9668  -24.6326    3.7507 N   0  0  0  0  0  0  0  0  0  0  0  0
   -8.9032  -24.3557    4.3806 C   0  0  0  0  0  0  0  0  0  0  0  0
  -10.0657  -23.9518    5.1790 C   0  0  0  0  0  0  0  0  0  0  0  0
  -10.9134  -25.1716    5.5777 C   0  0  0  0  0  0  0  0  0  0  0  0
  -11.0274  -26.1707    4.8662 O   0  0  0  0  0  0  0  0  0  0  0  0
  -11.6702  -25.1880    6.8642 C   0  0  0  0  0  0  0  0  0  0  0  0
  -11.3764  -26.1959    7.7948 C   0  0  0  0  0  0  0  0  0  0  0  0
  -11.9651  -26.1565    9.0525 C   0  0  0  0  0  0  0  0  0  0  0  0
  -12.8353  -25.1195    9.3244 C   0  0  0  0  0  0  0  0  0  0  0  0
  -13.1617  -24.1577    8.4315 N   0  0  0  0  0  0  0  0  0  0  0  0
  -12.6046  -24.1966    7.1886 C   0  0  0  0  0  0  0  0  0  0  0  0
  -13.0444  -23.1137    6.2229 C   0  0  0  0  0  0  0  0  0  0  0  0
  -13.7082  -23.4708    4.9123 C   0  0  0  0  0  0  0  0  0  0  0  0
  -14.5228  -22.8670    6.0151 C   0  0  0  0  0  0  0  0  0  0  0  0
   -9.5861  -23.2331    6.3859 C   0  0  0  0  0  0  0  0  0  0  0  0
   -9.7503  -21.9630    6.7098 N   0  0  0  0  0  0  0  0  0  0  0  0
   -9.3331  -21.9119    8.0176 C   0  0  0  0  0  0  0  0  0  0  0  0
   -9.2632  -20.8527    8.9208 C   0  0  0  0  0  0  0  0  0  0  0  0
   -8.7814  -21.1273   10.2116 C   0  0  0  0  0  0  0  0  0  0  0  0
   -8.4171  -22.4206   10.6002 C   0  0  0  0  0  0  0  0  0  0  0  0
   -8.4807  -23.4886    9.7053 C   0  0  0  0  0  0  0  0  0  0  0  0
   -8.9225  -23.1670    8.4320 C   0  0  0  0  0  0  0  0  0  0  0  0
   -9.0298  -24.0082    7.3706 O   0  0  0  0  0  0  0  0  0  0  0  0
  -10.7018  -23.2910    4.5805 H   0  0  0  0  0  0  0  0  0  0  0  0
  -10.6703  -26.9852    7.5469 H   0  0  0  0  0  0  0  0  0  0  0  0
  -11.7460  -26.9111    9.7998 H   0  0  0  0  0  0  0  0  0  0  0  0
  -13.3201  -25.0357   10.2934 H   0  0  0  0  0  0  0  0  0  0  0  0
  -12.4417  -22.2082    6.2403 H   0  0  0  0  0  0  0  0  0  0  0  0
  -13.5006  -22.8510    4.0468 H   0  0  0  0  0  0  0  0  0  0  0  0
  -13.8934  -24.5128    4.6729 H   0  0  0  0  0  0  0  0  0  0  0  0
  -14.8524  -21.8393    5.9065 H   0  0  0  0  0  0  0  0  0  0  0  0
  -15.2332  -23.5021    6.5337 H   0  0  0  0  0  0  0  0  0  0  0  0
   -9.5506  -19.8556    8.6140 H   0  0  0  0  0  0  0  0  0  0  0  0
   -8.6653  -20.3216   10.9319 H   0  0  0  0  0  0  0  0  0  0  0  0
   -8.0190  -22.5800   11.6010 H   0  0  0  0  0  0  0  0  0  0  0  0
   -8.1628  -24.4869    9.9737 H   0  0  0  0  0  0  0  0  0  0  0  0
  1  2  3  0
  2  3  1  0
  3  4  1  0
  4  5  2  0
  4  6  1  0
  6  7  2  0
  7  8  1  0
  8  9  2  0
  9 10  1  0
 10 11  2  0
 11 12  1  0
 12 13  1  0
 13 14  1  0
  3 15  1  0
 15 16  2  0
 16 17  1  0
 17 18  2  0
 18 19  1  0
 19 20  2  0
 20 21  1  0
 21 22  2  0
 22 23  1  0
 11  6  1  0
 14 12  1  0
 23 15  1  0
 22 17  1  0
  3 24  1  0
  7 25  1  0
  8 26  1  0
  9 27  1  0
 12 28  1  0
 13 29  1  0
 13 30  1  0
 14 31  1  0
 14 32  1  0
 18 33  1  0
 19 34  1  0
 20 35  1  0
 21 36  1  0
M  END
>  <Energy>  (1138) 
69.491657606432739

>  <compound_id>  (1138) 
28053

>  <target_id>  (1138) 
1

>  <reference_id>  (1138) 
2

>  <inspiration_ids>  (1138) 
[48, 2]

>  <energy_score>  (1138) 
-34.196614550685325

>  <distance_score>  (1138) 
0.9666055793547129

>  <path>  (1138) 
/opt/xchem-fragalysis-2/maxwin/BulkDock/SCRATCH/511017/C28053-P2/C28053-P2.minimised.mol

>  <scratch_subdir>  (1138) 
/opt/xchem-fragalysis-2/maxwin/BulkDock/SCRATCH/511017/C28053-P2

>  <fragmenstein_runtime>  (1138) 
1.0793066024780273

>  <fragmenstein_outcome>  (1138) 
acceptable

>  <fragmenstein_mode>  (1138) 
expansion

>  <fragmenstein_error>  (1138) 


$$$$
C28056-P48
     RDKit          3D

 31 33  0  0  0  0  0  0  0  0999 V2000
  -11.9788  -27.5701    4.8470 C   0  0  0  0  0  0  0  0  0  0  0  0
  -11.8280  -26.1403    5.3750 C   0  0  0  0  0  0  0  0  0  0  0  0
  -10.5329  -25.5900    4.9097 N   0  0  0  0  0  0  0  0  0  0  0  0
  -10.3230  -24.2812    5.0959 C   0  0  0  0  0  0  0  0  0  0  0  0
   -9.6119  -23.4634    4.3567 N   0  0  0  0  0  0  0  0  0  0  0  0
   -9.7730  -22.2735    4.9960 C   0  0  0  0  0  0  0  0  0  0  0  0
   -9.2383  -21.0246    4.7296 C   0  0  0  0  0  0  0  0  0  0  0  0
   -9.4578  -20.0487    5.6874 C   0  0  0  0  0  0  0  0  0  0  0  0
  -10.1818  -20.3141    6.8580 C   0  0  0  0  0  0  0  0  0  0  0  0
  -10.9154  -21.4755    7.0128 C   0  0  0  0  0  0  0  0  0  0  0  0
  -10.6006  -22.4332    6.0838 C   0  0  0  0  0  0  0  0  0  0  0  0
  -10.9653  -23.7189    6.1396 O   0  0  0  0  0  0  0  0  0  0  0  0
  -12.0077  -26.1167    6.9033 C   0  0  0  0  0  0  0  0  0  0  0  0
  -11.0701  -26.7279    7.7347 C   0  0  0  0  0  0  0  0  0  0  0  0
  -11.2265  -26.6463    9.1163 C   0  0  0  0  0  0  0  0  0  0  0  0
  -12.3021  -25.9446    9.6417 C   0  0  0  0  0  0  0  0  0  0  0  0
  -13.1923  -25.3654    8.7556 C   0  0  0  0  0  0  0  0  0  0  0  0
  -13.0849  -25.4503    7.4097 N   0  0  0  0  0  0  0  0  0  0  0  0
  -11.1723  -28.2225    5.2004 H   0  0  0  0  0  0  0  0  0  0  0  0
  -12.9312  -28.0093    5.1641 H   0  0  0  0  0  0  0  0  0  0  0  0
  -11.9501  -27.5819    3.7517 H   0  0  0  0  0  0  0  0  0  0  0  0
  -12.6384  -25.5463    4.9295 H   0  0  0  0  0  0  0  0  0  0  0  0
  -10.2682  -25.8916    3.9802 H   0  0  0  0  0  0  0  0  0  0  0  0
   -8.6158  -20.8529    3.8611 H   0  0  0  0  0  0  0  0  0  0  0  0
   -8.9635  -19.0993    5.5370 H   0  0  0  0  0  0  0  0  0  0  0  0
  -10.1190  -19.6197    7.6944 H   0  0  0  0  0  0  0  0  0  0  0  0
  -11.4678  -21.7229    7.9042 H   0  0  0  0  0  0  0  0  0  0  0  0
  -10.2043  -27.2293    7.3135 H   0  0  0  0  0  0  0  0  0  0  0  0
  -10.4949  -27.1069    9.7737 H   0  0  0  0  0  0  0  0  0  0  0  0
  -12.4425  -25.8507   10.7118 H   0  0  0  0  0  0  0  0  0  0  0  0
  -14.0525  -24.8071    9.1126 H   0  0  0  0  0  0  0  0  0  0  0  0
  1  2  1  0
  2  3  1  0
  3  4  1  0
  4  5  2  0
  5  6  1  0
  6  7  2  0
  7  8  1  0
  8  9  2  0
  9 10  1  0
 10 11  2  0
 11 12  1  0
  2 13  1  0
 13 14  2  0
 14 15  1  0
 15 16  2  0
 16 17  1  0
 17 18  2  0
 12  4  1  0
 18 13  1  0
 11  6  1  0
  1 19  1  0
  1 20  1  0
  1 21  1  0
  2 22  1  0
  3 23  1  0
  7 24  1  0
  8 25  1  0
  9 26  1  0
 10 27  1  0
 14 28  1  0
 15 29  1  0
 16 30  1  0
 17 31  1  0
M  END
>  <Energy>  (1139) 
11.539355082804544

>  <compound_id>  (1139) 
28056

>  <target_id>  (1139) 
1

>  <reference_id>  (1139) 
48

>  <inspiration_ids>  (1139) 
[48, 2]

>  <energy_score>  (1139) 
-41.750014241326426

>  <distance_score>  (1139) 
2.7499425682439727

>  <path>  (1139) 
/opt/xchem-fragalysis-2/maxwin/BulkDock/SCRATCH/511017/C28056-P48/C28056-P48.minimised.mol

>  <scratch_subdir>  (1139) 
/opt/xchem-fragalysis-2/maxwin/BulkDock/SCRATCH/511017/C28056-P48

>  <fragmenstein_runtime>  (1139) 
1.0919811725616455

>  <fragmenstein_outcome>  (1139) 
too moved

>  <fragmenstein_mode>  (1139) 
expansion

>  <fragmenstein_error>  (1139) 


$$$$
C28056-P2
     RDKit          3D

 31 33  0  0  0  0  0  0  0  0999 V2000
  -10.1596  -25.9811    4.8015 C   0  0  0  0  0  0  0  0  0  0  0  0
  -11.0931  -24.9111    5.3807 C   0  0  0  0  0  0  0  0  0  0  0  0
  -10.4017  -23.6031    5.2670 N   0  0  0  0  0  0  0  0  0  0  0  0
   -9.8184  -23.0716    6.3566 C   0  0  0  0  0  0  0  0  0  0  0  0
   -9.8302  -21.8060    6.7066 N   0  0  0  0  0  0  0  0  0  0  0  0
   -9.3713  -21.8399    7.9939 C   0  0  0  0  0  0  0  0  0  0  0  0
   -9.2148  -20.8228    8.9328 C   0  0  0  0  0  0  0  0  0  0  0  0
   -8.7169  -21.1683   10.1981 C   0  0  0  0  0  0  0  0  0  0  0  0
   -8.4121  -22.4948   10.5240 C   0  0  0  0  0  0  0  0  0  0  0  0
   -8.5574  -23.5238    9.5899 C   0  0  0  0  0  0  0  0  0  0  0  0
   -9.0259  -23.1325    8.3445 C   0  0  0  0  0  0  0  0  0  0  0  0
   -9.2405  -23.9209    7.2568 O   0  0  0  0  0  0  0  0  0  0  0  0
  -11.7043  -25.2252    6.7667 C   0  0  0  0  0  0  0  0  0  0  0  0
  -11.3506  -26.3704    7.4891 C   0  0  0  0  0  0  0  0  0  0  0  0
  -11.8518  -26.5607    8.7765 C   0  0  0  0  0  0  0  0  0  0  0  0
  -12.7010  -25.6118    9.3223 C   0  0  0  0  0  0  0  0  0  0  0  0
  -13.0353  -24.5200    8.5420 C   0  0  0  0  0  0  0  0  0  0  0  0
  -12.5733  -24.3121    7.2860 N   0  0  0  0  0  0  0  0  0  0  0  0
   -9.8309  -25.7018    3.7937 H   0  0  0  0  0  0  0  0  0  0  0  0
   -9.2588  -26.1072    5.4126 H   0  0  0  0  0  0  0  0  0  0  0  0
  -10.6636  -26.9506    4.7261 H   0  0  0  0  0  0  0  0  0  0  0  0
  -11.9553  -24.8642    4.7010 H   0  0  0  0  0  0  0  0  0  0  0  0
  -11.0127  -22.9152    4.8360 H   0  0  0  0  0  0  0  0  0  0  0  0
   -9.4609  -19.8069    8.6584 H   0  0  0  0  0  0  0  0  0  0  0  0
   -8.5333  -20.3944   10.9390 H   0  0  0  0  0  0  0  0  0  0  0  0
   -7.9990  -22.7143   11.5070 H   0  0  0  0  0  0  0  0  0  0  0  0
   -8.2986  -24.5499    9.8113 H   0  0  0  0  0  0  0  0  0  0  0  0
  -10.6588  -27.1043    7.0907 H   0  0  0  0  0  0  0  0  0  0  0  0
  -11.5661  -27.4375    9.3505 H   0  0  0  0  0  0  0  0  0  0  0  0
  -13.1023  -25.7243   10.3225 H   0  0  0  0  0  0  0  0  0  0  0  0
  -13.7127  -23.7561    8.9119 H   0  0  0  0  0  0  0  0  0  0  0  0
  1  2  1  0
  2  3  1  0
  3  4  1  0
  4  5  2  0
  5  6  1  0
  6  7  2  0
  7  8  1  0
  8  9  2  0
  9 10  1  0
 10 11  2  0
 11 12  1  0
  2 13  1  0
 13 14  2  0
 14 15  1  0
 15 16  2  0
 16 17  1  0
 17 18  2  0
 12  4  1  0
 18 13  1  0
 11  6  1  0
  1 19  1  0
  1 20  1  0
  1 21  1  0
  2 22  1  0
  3 23  1  0
  7 24  1  0
  8 25  1  0
  9 26  1  0
 10 27  1  0
 14 28  1  0
 15 29  1  0
 16 30  1  0
 17 31  1  0
M  END
>  <Energy>  (1140) 
10.807479800029903

>  <compound_id>  (1140) 
28056

>  <target_id>  (1140) 
1

>  <reference_id>  (1140) 
2

>  <inspiration_ids>  (1140) 
[48, 2]

>  <energy_score>  (1140) 
-42.48188952410035

>  <distance_score>  (1140) 
0.8838979674361507

>  <path>  (1140) 
/opt/xchem-fragalysis-2/maxwin/BulkDock/SCRATCH/511017/C28056-P2/C28056-P2.minimised.mol

>  <scratch_subdir>  (1140) 
/opt/xchem-fragalysis-2/maxwin/BulkDock/SCRATCH/511017/C28056-P2

>  <fragmenstein_runtime>  (1140) 
0.9343280792236328

>  <fragmenstein_outcome>  (1140) 
acceptable

>  <fragmenstein_mode>  (1140) 
expansion

>  <fragmenstein_error>  (1140) 


$$$$
C28058-P48
     RDKit          3D

 44 47  0  0  0  0  0  0  0  0999 V2000
   -6.7901  -25.1848    9.8706 C   0  0  0  0  0  0  0  0  0  0  0  0
   -5.7184  -24.5396    9.2529 C   0  0  0  0  0  0  0  0  0  0  0  0
   -5.7722  -24.1679    7.9012 C   0  0  0  0  0  0  0  0  0  0  0  0
   -6.9688  -24.4065    7.2393 C   0  0  0  0  0  0  0  0  0  0  0  0
   -7.3401  -24.0157    5.9793 O   0  0  0  0  0  0  0  0  0  0  0  0
   -8.6293  -24.4690    5.8779 C   0  0  0  0  0  0  0  0  0  0  0  0
   -9.3556  -24.2742    4.5807 C   0  0  0  0  0  0  0  0  0  0  0  0
  -10.8499  -24.0176    4.8856 C   0  0  0  0  0  0  0  0  0  0  0  0
  -11.8523  -24.9213    4.1776 C   0  0  0  0  0  0  0  0  0  0  0  0
  -11.4059  -26.2865    3.9166 N   0  0  0  0  0  0  0  0  0  0  0  0
  -11.1507  -27.1319    5.1048 C   0  0  0  0  0  0  0  0  0  0  0  0
  -12.3487  -27.4657    6.0212 C   0  0  0  0  0  0  0  0  0  0  0  0
  -12.6126  -26.5049    7.1579 C   0  0  0  0  0  0  0  0  0  0  0  0
  -13.7326  -25.6790    7.1114 C   0  0  0  0  0  0  0  0  0  0  0  0
  -13.9392  -24.7641    8.1292 C   0  0  0  0  0  0  0  0  0  0  0  0
  -13.1374  -24.6350    9.2031 N   0  0  0  0  0  0  0  0  0  0  0  0
  -12.0768  -25.4668    9.2502 C   0  0  0  0  0  0  0  0  0  0  0  0
  -11.7748  -26.4022    8.2697 C   0  0  0  0  0  0  0  0  0  0  0  0
  -10.2283  -26.1981    3.0467 C   0  0  0  0  0  0  0  0  0  0  0  0
   -9.0336  -25.4876    3.6769 C   0  0  0  0  0  0  0  0  0  0  0  0
   -9.0544  -25.1594    6.9148 N   0  0  0  0  0  0  0  0  0  0  0  0
   -8.0353  -25.0688    7.8115 C   0  0  0  0  0  0  0  0  0  0  0  0
   -7.9513  -25.4826    9.1481 C   0  0  0  0  0  0  0  0  0  0  0  0
   -6.7159  -25.4707   10.9169 H   0  0  0  0  0  0  0  0  0  0  0  0
   -4.8192  -24.3275    9.8286 H   0  0  0  0  0  0  0  0  0  0  0  0
   -4.9464  -23.6663    7.4135 H   0  0  0  0  0  0  0  0  0  0  0  0
   -8.9507  -23.3728    4.1016 H   0  0  0  0  0  0  0  0  0  0  0  0
  -11.0545  -24.0652    5.9622 H   0  0  0  0  0  0  0  0  0  0  0  0
  -11.0799  -22.9781    4.6134 H   0  0  0  0  0  0  0  0  0  0  0  0
  -12.8058  -24.9179    4.7101 H   0  0  0  0  0  0  0  0  0  0  0  0
  -12.1033  -24.4564    3.2132 H   0  0  0  0  0  0  0  0  0  0  0  0
  -10.3218  -26.7651    5.7068 H   0  0  0  0  0  0  0  0  0  0  0  0
  -10.8164  -28.1022    4.7114 H   0  0  0  0  0  0  0  0  0  0  0  0
  -13.2524  -27.5978    5.4120 H   0  0  0  0  0  0  0  0  0  0  0  0
  -12.1692  -28.4502    6.4755 H   0  0  0  0  0  0  0  0  0  0  0  0
  -14.4318  -25.7235    6.2826 H   0  0  0  0  0  0  0  0  0  0  0  0
  -14.7937  -24.0941    8.1074 H   0  0  0  0  0  0  0  0  0  0  0  0
  -11.4445  -25.3609   10.1256 H   0  0  0  0  0  0  0  0  0  0  0  0
  -10.8853  -27.0162    8.3577 H   0  0  0  0  0  0  0  0  0  0  0  0
  -10.5052  -25.6769    2.1202 H   0  0  0  0  0  0  0  0  0  0  0  0
   -9.9268  -27.2014    2.7194 H   0  0  0  0  0  0  0  0  0  0  0  0
   -8.4513  -26.2388    4.2292 H   0  0  0  0  0  0  0  0  0  0  0  0
   -8.3650  -25.1551    2.8714 H   0  0  0  0  0  0  0  0  0  0  0  0
   -8.7851  -25.9896    9.6152 H   0  0  0  0  0  0  0  0  0  0  0  0
  1  2  2  0
  2  3  1  0
  3  4  2  0
  4  5  1  0
  5  6  1  0
  6  7  1  0
  7  8  1  0
  8  9  1  0
  9 10  1  0
 10 11  1  0
 11 12  1  0
 12 13  1  0
 13 14  2  0
 14 15  1  0
 15 16  2  0
 16 17  1  0
 17 18  2  0
 10 19  1  0
 19 20  1  0
  6 21  2  0
 21 22  1  0
 22 23  2  0
 23  1  1  0
 22  4  1  0
 20  7  1  0
 18 13  1  0
  1 24  1  0
  2 25  1  0
  3 26  1  0
  7 27  1  0
  8 28  1  0
  8 29  1  0
  9 30  1  0
  9 31  1  0
 11 32  1  0
 11 33  1  0
 12 34  1  0
 12 35  1  0
 14 36  1  0
 15 37  1  0
 17 38  1  0
 18 39  1  0
 19 40  1  0
 19 41  1  0
 20 42  1  0
 20 43  1  0
 23 44  1  0
M  END
>  <Energy>  (1141) 
61.660814586629009

>  <compound_id>  (1141) 
28058

>  <target_id>  (1141) 
1

>  <reference_id>  (1141) 
48

>  <inspiration_ids>  (1141) 
[48, 2]

>  <energy_score>  (1141) 
-23.507189850287673

>  <distance_score>  (1141) 
2.972055922521145

>  <path>  (1141) 
/opt/xchem-fragalysis-2/maxwin/BulkDock/SCRATCH/511017/C28058-P48/C28058-P48.minimised.mol

>  <scratch_subdir>  (1141) 
/opt/xchem-fragalysis-2/maxwin/BulkDock/SCRATCH/511017/C28058-P48

>  <fragmenstein_runtime>  (1141) 
1.4927337169647217

>  <fragmenstein_outcome>  (1141) 
too moved

>  <fragmenstein_mode>  (1141) 
expansion

>  <fragmenstein_error>  (1141) 


$$$$
C28058-P2
     RDKit          3D

 44 47  0  0  0  0  0  0  0  0999 V2000
   -8.8930  -21.1529   10.0784 C   0  0  0  0  0  0  0  0  0  0  0  0
   -8.5886  -22.4694   10.4387 C   0  0  0  0  0  0  0  0  0  0  0  0
   -8.6304  -23.5002    9.4992 C   0  0  0  0  0  0  0  0  0  0  0  0
   -8.9688  -23.1185    8.2080 C   0  0  0  0  0  0  0  0  0  0  0  0
   -8.9739  -23.9031    7.1000 O   0  0  0  0  0  0  0  0  0  0  0  0
   -9.3027  -23.0500    6.0800 C   0  0  0  0  0  0  0  0  0  0  0  0
   -9.2940  -23.6077    4.6856 C   0  0  0  0  0  0  0  0  0  0  0  0
   -8.2884  -24.7571    4.5122 C   0  0  0  0  0  0  0  0  0  0  0  0
   -8.7501  -26.0720    5.1667 C   0  0  0  0  0  0  0  0  0  0  0  0
  -10.2054  -26.1546    5.2898 N   0  0  0  0  0  0  0  0  0  0  0  0
  -10.6932  -27.4713    5.7014 C   0  0  0  0  0  0  0  0  0  0  0  0
  -10.8093  -27.5755    7.2432 C   0  0  0  0  0  0  0  0  0  0  0  0
  -11.6721  -26.5220    7.9111 C   0  0  0  0  0  0  0  0  0  0  0  0
  -12.8321  -26.0329    7.3080 C   0  0  0  0  0  0  0  0  0  0  0  0
  -13.5250  -25.0000    7.9185 C   0  0  0  0  0  0  0  0  0  0  0  0
  -13.1730  -24.4472    9.0967 N   0  0  0  0  0  0  0  0  0  0  0  0
  -12.0803  -24.9671    9.6928 C   0  0  0  0  0  0  0  0  0  0  0  0
  -11.3171  -25.9951    9.1561 C   0  0  0  0  0  0  0  0  0  0  0  0
  -10.8942  -25.5525    4.1625 C   0  0  0  0  0  0  0  0  0  0  0  0
  -10.7030  -24.0310    4.2294 C   0  0  0  0  0  0  0  0  0  0  0  0
   -9.5204  -21.8018    6.4574 N   0  0  0  0  0  0  0  0  0  0  0  0
   -9.2998  -21.8346    7.8137 C   0  0  0  0  0  0  0  0  0  0  0  0
   -9.2848  -20.8178    8.7705 C   0  0  0  0  0  0  0  0  0  0  0  0
   -8.8010  -20.3757   10.8330 H   0  0  0  0  0  0  0  0  0  0  0  0
   -8.2630  -22.6788   11.4558 H   0  0  0  0  0  0  0  0  0  0  0  0
   -8.3522  -24.5163    9.7418 H   0  0  0  0  0  0  0  0  0  0  0  0
   -8.9669  -22.7816    4.0390 H   0  0  0  0  0  0  0  0  0  0  0  0
   -8.1598  -24.9345    3.4356 H   0  0  0  0  0  0  0  0  0  0  0  0
   -7.3007  -24.4787    4.9001 H   0  0  0  0  0  0  0  0  0  0  0  0
   -8.2950  -26.1664    6.1593 H   0  0  0  0  0  0  0  0  0  0  0  0
   -8.3579  -26.9019    4.5648 H   0  0  0  0  0  0  0  0  0  0  0  0
  -10.0444  -28.2729    5.3263 H   0  0  0  0  0  0  0  0  0  0  0  0
  -11.6798  -27.6769    5.2679 H   0  0  0  0  0  0  0  0  0  0  0  0
  -11.2208  -28.5594    7.5002 H   0  0  0  0  0  0  0  0  0  0  0  0
   -9.7984  -27.5349    7.6691 H   0  0  0  0  0  0  0  0  0  0  0  0
  -13.1885  -26.4105    6.3573 H   0  0  0  0  0  0  0  0  0  0  0  0
  -14.4132  -24.5778    7.4574 H   0  0  0  0  0  0  0  0  0  0  0  0
  -11.8108  -24.5164   10.6436 H   0  0  0  0  0  0  0  0  0  0  0  0
  -10.4369  -26.3449    9.6839 H   0  0  0  0  0  0  0  0  0  0  0  0
  -11.9724  -25.7502    4.1890 H   0  0  0  0  0  0  0  0  0  0  0  0
  -10.5245  -25.9559    3.2114 H   0  0  0  0  0  0  0  0  0  0  0  0
  -10.8921  -23.6267    3.2267 H   0  0  0  0  0  0  0  0  0  0  0  0
  -11.4686  -23.5936    4.8840 H   0  0  0  0  0  0  0  0  0  0  0  0
   -9.5066  -19.7991    8.4802 H   0  0  0  0  0  0  0  0  0  0  0  0
  1  2  2  0
  2  3  1  0
  3  4  2  0
  4  5  1  0
  5  6  1  0
  6  7  1  0
  7  8  1  0
  8  9  1  0
  9 10  1  0
 10 11  1  0
 11 12  1  0
 12 13  1  0
 13 14  2  0
 14 15  1  0
 15 16  2  0
 16 17  1  0
 17 18  2  0
 10 19  1  0
 19 20  1  0
  6 21  2  0
 21 22  1  0
 22 23  2  0
 23  1  1  0
 22  4  1  0
 20  7  1  0
 18 13  1  0
  1 24  1  0
  2 25  1  0
  3 26  1  0
  7 27  1  0
  8 28  1  0
  8 29  1  0
  9 30  1  0
  9 31  1  0
 11 32  1  0
 11 33  1  0
 12 34  1  0
 12 35  1  0
 14 36  1  0
 15 37  1  0
 17 38  1  0
 18 39  1  0
 19 40  1  0
 19 41  1  0
 20 42  1  0
 20 43  1  0
 23 44  1  0
M  END
>  <Energy>  (1142) 
56.768728906688423

>  <compound_id>  (1142) 
28058

>  <target_id>  (1142) 
1

>  <reference_id>  (1142) 
2

>  <inspiration_ids>  (1142) 
[48, 2]

>  <energy_score>  (1142) 
-28.399275530226802

>  <distance_score>  (1142) 
0.8795060299430313

>  <path>  (1142) 
/opt/xchem-fragalysis-2/maxwin/BulkDock/SCRATCH/511017/C28058-P2/C28058-P2.minimised.mol

>  <scratch_subdir>  (1142) 
/opt/xchem-fragalysis-2/maxwin/BulkDock/SCRATCH/511017/C28058-P2

>  <fragmenstein_runtime>  (1142) 
1.8334245681762695

>  <fragmenstein_outcome>  (1142) 
acceptable

>  <fragmenstein_mode>  (1142) 
expansion

>  <fragmenstein_error>  (1142) 


$$$$
C28062-P48
     RDKit          3D

 34 36  0  0  0  0  0  0  0  0999 V2000
  -12.8429  -30.2172    7.7046 C   0  0  0  0  0  0  0  0  0  0  0  0
  -12.1398  -28.9327    8.1149 C   0  0  0  0  0  0  0  0  0  0  0  0
  -12.6280  -27.7507    7.3212 C   0  0  0  0  0  0  0  0  0  0  0  0
  -13.6933  -26.9767    7.7736 C   0  0  0  0  0  0  0  0  0  0  0  0
  -14.1173  -25.9216    6.9811 C   0  0  0  0  0  0  0  0  0  0  0  0
  -13.5472  -25.5692    5.8003 N   0  0  0  0  0  0  0  0  0  0  0  0
  -12.4709  -26.2883    5.3834 C   0  0  0  0  0  0  0  0  0  0  0  0
  -11.6546  -25.7916    4.1593 C   0  0  0  0  0  0  0  0  0  0  0  0
  -10.9311  -24.4797    4.2882 N   0  0  0  0  0  0  0  0  0  0  0  0
  -10.6824  -24.1427    5.5697 C   0  0  0  0  0  0  0  0  0  0  0  0
  -11.4573  -23.3336    6.2525 N   0  0  0  0  0  0  0  0  0  0  0  0
  -11.5025  -23.9710    7.4619 C   0  0  0  0  0  0  0  0  0  0  0  0
  -12.3141  -23.7606    8.5858 C   0  0  0  0  0  0  0  0  0  0  0  0
  -12.0682  -24.5258    9.7476 C   0  0  0  0  0  0  0  0  0  0  0  0
  -11.0531  -25.5001    9.7801 C   0  0  0  0  0  0  0  0  0  0  0  0
  -10.2601  -25.7604    8.6480 C   0  0  0  0  0  0  0  0  0  0  0  0
  -10.5365  -24.9786    7.5200 C   0  0  0  0  0  0  0  0  0  0  0  0
   -9.9420  -25.0341    6.2943 O   0  0  0  0  0  0  0  0  0  0  0  0
  -12.0210  -27.4040    6.1041 C   0  0  0  0  0  0  0  0  0  0  0  0
  -12.6705  -30.4443    6.6470 H   0  0  0  0  0  0  0  0  0  0  0  0
  -12.4700  -31.0586    8.2972 H   0  0  0  0  0  0  0  0  0  0  0  0
  -13.9246  -30.1452    7.8606 H   0  0  0  0  0  0  0  0  0  0  0  0
  -11.0568  -29.0444    7.9827 H   0  0  0  0  0  0  0  0  0  0  0  0
  -12.2973  -28.7502    9.1849 H   0  0  0  0  0  0  0  0  0  0  0  0
  -14.1980  -27.1935    8.7079 H   0  0  0  0  0  0  0  0  0  0  0  0
  -14.9570  -25.3019    7.2823 H   0  0  0  0  0  0  0  0  0  0  0  0
  -10.9146  -26.5528    3.8841 H   0  0  0  0  0  0  0  0  0  0  0  0
  -12.3478  -25.7155    3.3126 H   0  0  0  0  0  0  0  0  0  0  0  0
  -11.5594  -23.7706    3.9168 H   0  0  0  0  0  0  0  0  0  0  0  0
  -13.1172  -23.0397    8.5251 H   0  0  0  0  0  0  0  0  0  0  0  0
  -12.6869  -24.3715   10.6292 H   0  0  0  0  0  0  0  0  0  0  0  0
  -10.8892  -26.0765   10.6882 H   0  0  0  0  0  0  0  0  0  0  0  0
   -9.4798  -26.5091    8.6364 H   0  0  0  0  0  0  0  0  0  0  0  0
  -11.1571  -27.9615    5.7518 H   0  0  0  0  0  0  0  0  0  0  0  0
  1  2  1  0
  2  3  1  0
  3  4  2  0
  4  5  1  0
  5  6  2  0
  6  7  1  0
  7  8  1  0
  8  9  1  0
  9 10  1  0
 10 11  2  0
 11 12  1  0
 12 13  2  0
 13 14  1  0
 14 15  2  0
 15 16  1  0
 16 17  2  0
 17 18  1  0
  7 19  2  0
 19  3  1  0
 18 10  1  0
 17 12  1  0
  1 20  1  0
  1 21  1  0
  1 22  1  0
  2 23  1  0
  2 24  1  0
  4 25  1  0
  5 26  1  0
  8 27  1  0
  8 28  1  0
  9 29  1  0
 13 30  1  0
 14 31  1  0
 15 32  1  0
 16 33  1  0
 19 34  1  0
M  END
>  <Energy>  (1143) 
28.770997339268344

>  <compound_id>  (1143) 
28062

>  <target_id>  (1143) 
1

>  <reference_id>  (1143) 
48

>  <inspiration_ids>  (1143) 
[48, 2]

>  <energy_score>  (1143) 
-11.006037956212992

>  <distance_score>  (1143) 
3.2034349461200513

>  <path>  (1143) 
/opt/xchem-fragalysis-2/maxwin/BulkDock/SCRATCH/511017/C28062-P48/C28062-P48.minimised.mol

>  <scratch_subdir>  (1143) 
/opt/xchem-fragalysis-2/maxwin/BulkDock/SCRATCH/511017/C28062-P48

>  <fragmenstein_runtime>  (1143) 
1.0830705165863037

>  <fragmenstein_outcome>  (1143) 
too moved

>  <fragmenstein_mode>  (1143) 
expansion

>  <fragmenstein_error>  (1143) 


$$$$
C28062-P2
     RDKit          3D

 34 36  0  0  0  0  0  0  0  0999 V2000
  -12.1074  -29.2349    8.2571 C   0  0  0  0  0  0  0  0  0  0  0  0
  -11.1209  -28.1358    8.6198 C   0  0  0  0  0  0  0  0  0  0  0  0
  -11.6665  -26.7681    8.3055 C   0  0  0  0  0  0  0  0  0  0  0  0
  -12.3840  -26.0480    9.2600 C   0  0  0  0  0  0  0  0  0  0  0  0
  -12.8733  -24.8004    8.9128 C   0  0  0  0  0  0  0  0  0  0  0  0
  -12.6920  -24.2232    7.7044 N   0  0  0  0  0  0  0  0  0  0  0  0
  -11.9789  -24.9213    6.7786 C   0  0  0  0  0  0  0  0  0  0  0  0
  -11.6812  -24.2253    5.4496 C   0  0  0  0  0  0  0  0  0  0  0  0
  -10.3058  -23.6907    5.2637 N   0  0  0  0  0  0  0  0  0  0  0  0
   -9.7895  -23.1087    6.3632 C   0  0  0  0  0  0  0  0  0  0  0  0
   -9.7491  -21.8310    6.6589 N   0  0  0  0  0  0  0  0  0  0  0  0
   -9.3466  -21.8392    7.9702 C   0  0  0  0  0  0  0  0  0  0  0  0
   -9.1689  -20.7999    8.8813 C   0  0  0  0  0  0  0  0  0  0  0  0
   -8.7127  -21.1265   10.1691 C   0  0  0  0  0  0  0  0  0  0  0  0
   -8.4717  -22.4524   10.5465 C   0  0  0  0  0  0  0  0  0  0  0  0
   -8.6520  -23.5038    9.6469 C   0  0  0  0  0  0  0  0  0  0  0  0
   -9.0770  -23.1328    8.3800 C   0  0  0  0  0  0  0  0  0  0  0  0
   -9.3094  -23.9504    7.3216 O   0  0  0  0  0  0  0  0  0  0  0  0
  -11.4724  -26.1956    7.0421 C   0  0  0  0  0  0  0  0  0  0  0  0
  -12.3442  -29.2196    7.1877 H   0  0  0  0  0  0  0  0  0  0  0  0
  -11.6858  -30.2161    8.4969 H   0  0  0  0  0  0  0  0  0  0  0  0
  -13.0462  -29.1244    8.8104 H   0  0  0  0  0  0  0  0  0  0  0  0
  -10.1786  -28.2898    8.0799 H   0  0  0  0  0  0  0  0  0  0  0  0
  -10.8726  -28.1983    9.6863 H   0  0  0  0  0  0  0  0  0  0  0  0
  -12.5677  -26.4486   10.2509 H   0  0  0  0  0  0  0  0  0  0  0  0
  -13.4505  -24.2152    9.6209 H   0  0  0  0  0  0  0  0  0  0  0  0
  -11.8878  -24.9272    4.6329 H   0  0  0  0  0  0  0  0  0  0  0  0
  -12.3931  -23.3977    5.3297 H   0  0  0  0  0  0  0  0  0  0  0  0
  -10.3621  -23.0000    4.5201 H   0  0  0  0  0  0  0  0  0  0  0  0
   -9.3534  -19.7820    8.5677 H   0  0  0  0  0  0  0  0  0  0  0  0
   -8.5061  -20.3396   10.8898 H   0  0  0  0  0  0  0  0  0  0  0  0
   -8.0877  -22.6563   11.5443 H   0  0  0  0  0  0  0  0  0  0  0  0
   -8.4502  -24.5339    9.9065 H   0  0  0  0  0  0  0  0  0  0  0  0
  -10.8932  -26.7132    6.2826 H   0  0  0  0  0  0  0  0  0  0  0  0
  1  2  1  0
  2  3  1  0
  3  4  2  0
  4  5  1  0
  5  6  2  0
  6  7  1  0
  7  8  1  0
  8  9  1  0
  9 10  1  0
 10 11  2  0
 11 12  1  0
 12 13  2  0
 13 14  1  0
 14 15  2  0
 15 16  1  0
 16 17  2  0
 17 18  1  0
  7 19  2  0
 19  3  1  0
 18 10  1  0
 17 12  1  0
  1 20  1  0
  1 21  1  0
  1 22  1  0
  2 23  1  0
  2 24  1  0
  4 25  1  0
  5 26  1  0
  8 27  1  0
  8 28  1  0
  9 29  1  0
 13 30  1  0
 14 31  1  0
 15 32  1  0
 16 33  1  0
 19 34  1  0
M  END
>  <Energy>  (1144) 
9.9382508765947914

>  <compound_id>  (1144) 
28062

>  <target_id>  (1144) 
1

>  <reference_id>  (1144) 
2

>  <inspiration_ids>  (1144) 
[48, 2]

>  <energy_score>  (1144) 
-29.83878441888592

>  <distance_score>  (1144) 
0.7995469272827423

>  <path>  (1144) 
/opt/xchem-fragalysis-2/maxwin/BulkDock/SCRATCH/511017/C28062-P2/C28062-P2.minimised.mol

>  <scratch_subdir>  (1144) 
/opt/xchem-fragalysis-2/maxwin/BulkDock/SCRATCH/511017/C28062-P2

>  <fragmenstein_runtime>  (1144) 
0.9391405582427979

>  <fragmenstein_outcome>  (1144) 
acceptable

>  <fragmenstein_mode>  (1144) 
expansion

>  <fragmenstein_error>  (1144) 


$$$$
C28063-P48
     RDKit          3D

 42 44  0  0  0  0  0  0  0  0999 V2000
  -13.6956  -27.0208   10.9034 O   0  0  0  0  0  0  0  0  0  0  0  0
  -12.7326  -26.5838   10.2875 C   0  0  0  0  0  0  0  0  0  0  0  0
  -12.1136  -27.3237    9.1710 C   0  0  0  0  0  0  0  0  0  0  0  0
  -12.9145  -28.2117    8.4591 C   0  0  0  0  0  0  0  0  0  0  0  0
  -12.5386  -28.5844    7.1744 C   0  0  0  0  0  0  0  0  0  0  0  0
  -11.3703  -28.0620    6.6547 C   0  0  0  0  0  0  0  0  0  0  0  0
  -10.5579  -27.2376    7.3414 N   0  0  0  0  0  0  0  0  0  0  0  0
  -10.9279  -26.8979    8.5942 C   0  0  0  0  0  0  0  0  0  0  0  0
  -12.2014  -25.3340   10.5032 N   0  0  0  0  0  0  0  0  0  0  0  0
  -11.1282  -25.1513   11.5053 C   0  0  0  0  0  0  0  0  0  0  0  0
  -11.2826  -23.9693   12.4897 C   0  0  0  0  0  0  0  0  0  0  0  0
  -10.4784  -22.8664   12.0765 O   0  0  0  0  0  0  0  0  0  0  0  0
  -12.7355  -24.2259    9.7147 C   0  0  0  0  0  0  0  0  0  0  0  0
  -13.3344  -24.4428    8.2878 C   0  0  0  0  0  0  0  0  0  0  0  0
  -12.3806  -24.6958    7.2135 N   0  0  0  0  0  0  0  0  0  0  0  0
  -11.6154  -23.7834    6.6279 C   0  0  0  0  0  0  0  0  0  0  0  0
  -10.7962  -23.9873    5.6249 N   0  0  0  0  0  0  0  0  0  0  0  0
  -10.2111  -22.7798    5.4642 C   0  0  0  0  0  0  0  0  0  0  0  0
   -9.2107  -22.3629    4.5937 C   0  0  0  0  0  0  0  0  0  0  0  0
   -8.8417  -21.0251    4.6252 C   0  0  0  0  0  0  0  0  0  0  0  0
   -9.3857  -20.1646    5.5672 C   0  0  0  0  0  0  0  0  0  0  0  0
  -10.2866  -20.6069    6.5307 C   0  0  0  0  0  0  0  0  0  0  0  0
  -10.7411  -21.8875    6.3673 C   0  0  0  0  0  0  0  0  0  0  0  0
  -11.6887  -22.5145    7.0952 O   0  0  0  0  0  0  0  0  0  0  0  0
  -13.8693  -28.5424    8.8617 H   0  0  0  0  0  0  0  0  0  0  0  0
  -13.1586  -29.2477    6.5810 H   0  0  0  0  0  0  0  0  0  0  0  0
  -11.0405  -28.3050    5.6481 H   0  0  0  0  0  0  0  0  0  0  0  0
  -10.2607  -26.1796    9.0553 H   0  0  0  0  0  0  0  0  0  0  0  0
  -11.0866  -26.0799   12.0880 H   0  0  0  0  0  0  0  0  0  0  0  0
  -10.1806  -25.0655   10.9662 H   0  0  0  0  0  0  0  0  0  0  0  0
  -10.9198  -24.2694   13.4779 H   0  0  0  0  0  0  0  0  0  0  0  0
  -12.3253  -23.6511   12.5789 H   0  0  0  0  0  0  0  0  0  0  0  0
  -10.7215  -22.1012   12.6318 H   0  0  0  0  0  0  0  0  0  0  0  0
  -13.5270  -23.7982   10.3384 H   0  0  0  0  0  0  0  0  0  0  0  0
  -11.9167  -23.5300    9.6097 H   0  0  0  0  0  0  0  0  0  0  0  0
  -14.0611  -25.2620    8.3113 H   0  0  0  0  0  0  0  0  0  0  0  0
  -13.9136  -23.5461    8.0310 H   0  0  0  0  0  0  0  0  0  0  0  0
  -12.2224  -25.6503    6.9156 H   0  0  0  0  0  0  0  0  0  0  0  0
   -8.7771  -23.0578    3.8841 H   0  0  0  0  0  0  0  0  0  0  0  0
   -8.1033  -20.6596    3.9161 H   0  0  0  0  0  0  0  0  0  0  0  0
   -9.0217  -19.1481    5.5798 H   0  0  0  0  0  0  0  0  0  0  0  0
  -10.4957  -20.0498    7.4282 H   0  0  0  0  0  0  0  0  0  0  0  0
  1  2  2  0
  2  3  1  0
  3  4  2  0
  4  5  1  0
  5  6  2  0
  6  7  1  0
  7  8  2  0
  2  9  1  0
  9 10  1  0
 10 11  1  0
 11 12  1  0
  9 13  1  0
 13 14  1  0
 14 15  1  0
 15 16  1  0
 16 17  2  0
 17 18  1  0
 18 19  2  0
 19 20  1  0
 20 21  2  0
 21 22  1  0
 22 23  2  0
 23 24  1  0
  8  3  1  0
 24 16  1  0
 23 18  1  0
  4 25  1  0
  5 26  1  0
  6 27  1  0
  8 28  1  0
 10 29  1  0
 10 30  1  0
 11 31  1  0
 11 32  1  0
 12 33  1  0
 13 34  1  0
 13 35  1  0
 14 36  1  0
 14 37  1  0
 15 38  1  0
 19 39  1  0
 20 40  1  0
 21 41  1  0
 22 42  1  0
M  END
>  <Energy>  (1145) 
59.60880999044997

>  <compound_id>  (1145) 
28063

>  <target_id>  (1145) 
1

>  <reference_id>  (1145) 
48

>  <inspiration_ids>  (1145) 
[48, 2]

>  <energy_score>  (1145) 
-14.114918607305817

>  <distance_score>  (1145) 
3.118167388579181

>  <path>  (1145) 
/opt/xchem-fragalysis-2/maxwin/BulkDock/SCRATCH/511017/C28063-P48/C28063-P48.minimised.mol

>  <scratch_subdir>  (1145) 
/opt/xchem-fragalysis-2/maxwin/BulkDock/SCRATCH/511017/C28063-P48

>  <fragmenstein_runtime>  (1145) 
3.2969324588775635

>  <fragmenstein_outcome>  (1145) 
too moved

>  <fragmenstein_mode>  (1145) 
expansion

>  <fragmenstein_error>  (1145) 


$$$$
C28063-P2
     RDKit          3D

 42 44  0  0  0  0  0  0  0  0999 V2000
  -10.5859  -23.1692    9.5676 O   0  0  0  0  0  0  0  0  0  0  0  0
  -10.7194  -24.3737    9.7566 C   0  0  0  0  0  0  0  0  0  0  0  0
  -11.9335  -25.0864    9.3006 C   0  0  0  0  0  0  0  0  0  0  0  0
  -11.9861  -26.4619    9.0665 C   0  0  0  0  0  0  0  0  0  0  0  0
  -13.0790  -26.9942    8.3901 C   0  0  0  0  0  0  0  0  0  0  0  0
  -14.0989  -26.1367    8.0119 C   0  0  0  0  0  0  0  0  0  0  0  0
  -14.1105  -24.8159    8.2857 N   0  0  0  0  0  0  0  0  0  0  0  0
  -13.0262  -24.3238    8.9250 C   0  0  0  0  0  0  0  0  0  0  0  0
   -9.7103  -25.1290   10.3052 N   0  0  0  0  0  0  0  0  0  0  0  0
   -9.6529  -25.2822   11.7616 C   0  0  0  0  0  0  0  0  0  0  0  0
  -10.3955  -24.1928   12.5851 C   0  0  0  0  0  0  0  0  0  0  0  0
   -9.8473  -22.8956   12.3929 O   0  0  0  0  0  0  0  0  0  0  0  0
   -8.7049  -25.7724    9.4392 C   0  0  0  0  0  0  0  0  0  0  0  0
   -7.6323  -24.8489    8.8419 C   0  0  0  0  0  0  0  0  0  0  0  0
   -7.5514  -24.9083    7.3530 N   0  0  0  0  0  0  0  0  0  0  0  0
   -8.3313  -24.0017    6.7568 C   0  0  0  0  0  0  0  0  0  0  0  0
   -7.9440  -22.8986    6.1708 N   0  0  0  0  0  0  0  0  0  0  0  0
   -9.0872  -22.1668    6.1522 C   0  0  0  0  0  0  0  0  0  0  0  0
   -9.3151  -20.8460    5.7914 C   0  0  0  0  0  0  0  0  0  0  0  0
  -10.6345  -20.4297    5.7528 C   0  0  0  0  0  0  0  0  0  0  0  0
  -11.6818  -21.2955    6.0821 C   0  0  0  0  0  0  0  0  0  0  0  0
  -11.4644  -22.5964    6.5044 C   0  0  0  0  0  0  0  0  0  0  0  0
  -10.1460  -22.9678    6.5302 C   0  0  0  0  0  0  0  0  0  0  0  0
   -9.6612  -24.1696    6.9056 O   0  0  0  0  0  0  0  0  0  0  0  0
  -11.1721  -27.1203    9.3471 H   0  0  0  0  0  0  0  0  0  0  0  0
  -13.1326  -28.0518    8.1556 H   0  0  0  0  0  0  0  0  0  0  0  0
  -14.9701  -26.5058    7.4768 H   0  0  0  0  0  0  0  0  0  0  0  0
  -13.0397  -23.2477    9.0666 H   0  0  0  0  0  0  0  0  0  0  0  0
   -8.5920  -25.2571   12.0232 H   0  0  0  0  0  0  0  0  0  0  0  0
  -10.0529  -26.2723   12.0032 H   0  0  0  0  0  0  0  0  0  0  0  0
  -10.3144  -24.4298   13.6506 H   0  0  0  0  0  0  0  0  0  0  0  0
  -11.4607  -24.1609   12.3353 H   0  0  0  0  0  0  0  0  0  0  0  0
   -9.8121  -22.7248   11.4288 H   0  0  0  0  0  0  0  0  0  0  0  0
   -8.2268  -26.5651   10.0271 H   0  0  0  0  0  0  0  0  0  0  0  0
   -9.2367  -26.2718    8.6230 H   0  0  0  0  0  0  0  0  0  0  0  0
   -7.7554  -23.8165    9.1917 H   0  0  0  0  0  0  0  0  0  0  0  0
   -6.6669  -25.2057    9.2176 H   0  0  0  0  0  0  0  0  0  0  0  0
   -6.5881  -24.7605    7.0674 H   0  0  0  0  0  0  0  0  0  0  0  0
   -8.5282  -20.1878    5.4613 H   0  0  0  0  0  0  0  0  0  0  0  0
  -10.8593  -19.4312    5.3774 H   0  0  0  0  0  0  0  0  0  0  0  0
  -12.7072  -20.9568    5.9343 H   0  0  0  0  0  0  0  0  0  0  0  0
  -12.2722  -23.2836    6.6953 H   0  0  0  0  0  0  0  0  0  0  0  0
  1  2  2  0
  2  3  1  0
  3  4  2  0
  4  5  1  0
  5  6  2  0
  6  7  1  0
  7  8  2  0
  2  9  1  0
  9 10  1  0
 10 11  1  0
 11 12  1  0
  9 13  1  0
 13 14  1  0
 14 15  1  0
 15 16  1  0
 16 17  2  0
 17 18  1  0
 18 19  2  0
 19 20  1  0
 20 21  2  0
 21 22  1  0
 22 23  2  0
 23 24  1  0
  8  3  1  0
 24 16  1  0
 23 18  1  0
  4 25  1  0
  5 26  1  0
  6 27  1  0
  8 28  1  0
 10 29  1  0
 10 30  1  0
 11 31  1  0
 11 32  1  0
 12 33  1  0
 13 34  1  0
 13 35  1  0
 14 36  1  0
 14 37  1  0
 15 38  1  0
 19 39  1  0
 20 40  1  0
 21 41  1  0
 22 42  1  0
M  END
>  <Energy>  (1146) 
53.891635258935004

>  <compound_id>  (1146) 
28063

>  <target_id>  (1146) 
1

>  <reference_id>  (1146) 
2

>  <inspiration_ids>  (1146) 
[48, 2]

>  <energy_score>  (1146) 
-19.832093338819853

>  <distance_score>  (1146) 
2.708478986596828

>  <path>  (1146) 
/opt/xchem-fragalysis-2/maxwin/BulkDock/SCRATCH/511017/C28063-P2/C28063-P2.minimised.mol

>  <scratch_subdir>  (1146) 
/opt/xchem-fragalysis-2/maxwin/BulkDock/SCRATCH/511017/C28063-P2

>  <fragmenstein_runtime>  (1146) 
2.4135043621063232

>  <fragmenstein_outcome>  (1146) 
too moved

>  <fragmenstein_mode>  (1146) 
expansion

>  <fragmenstein_error>  (1146) 


$$$$
C28064-P48
     RDKit          3D

 36 38  0  0  0  0  0  0  0  0999 V2000
  -12.4149  -28.9265    5.7391 C   0  0  0  0  0  0  0  0  0  0  0  0
  -11.1055  -28.4677    6.0500 O   0  0  0  0  0  0  0  0  0  0  0  0
  -10.9948  -27.0396    6.0983 C   0  0  0  0  0  0  0  0  0  0  0  0
   -9.4846  -26.7044    5.9509 C   0  0  0  0  0  0  0  0  0  0  0  0
   -8.6507  -27.1083    6.7687 O   0  0  0  0  0  0  0  0  0  0  0  0
   -9.0887  -25.8938    4.7152 C   0  0  0  0  0  0  0  0  0  0  0  0
   -7.6646  -26.0658    4.4045 C   0  0  0  0  0  0  0  0  0  0  0  0
   -6.5579  -26.2305    4.0888 N   0  0  0  0  0  0  0  0  0  0  0  0
   -9.4184  -24.4780    4.9201 C   0  0  0  0  0  0  0  0  0  0  0  0
   -8.9297  -23.4022    4.3379 N   0  0  0  0  0  0  0  0  0  0  0  0
   -9.5483  -22.3924    5.0036 C   0  0  0  0  0  0  0  0  0  0  0  0
   -9.3239  -21.0319    4.9514 C   0  0  0  0  0  0  0  0  0  0  0  0
   -9.8708  -20.3235    6.0052 C   0  0  0  0  0  0  0  0  0  0  0  0
  -10.7109  -20.9100    6.9589 C   0  0  0  0  0  0  0  0  0  0  0  0
  -11.2081  -22.1903    6.8054 C   0  0  0  0  0  0  0  0  0  0  0  0
  -10.4729  -22.9038    5.8906 C   0  0  0  0  0  0  0  0  0  0  0  0
  -10.4409  -24.2436    5.7830 O   0  0  0  0  0  0  0  0  0  0  0  0
  -11.6123  -26.4810    7.3678 C   0  0  0  0  0  0  0  0  0  0  0  0
  -11.1741  -26.8390    8.6454 C   0  0  0  0  0  0  0  0  0  0  0  0
  -11.7468  -26.2473    9.7699 C   0  0  0  0  0  0  0  0  0  0  0  0
  -12.7543  -25.3162    9.5846 C   0  0  0  0  0  0  0  0  0  0  0  0
  -13.2256  -24.9558    8.3733 N   0  0  0  0  0  0  0  0  0  0  0  0
  -12.6512  -25.5521    7.3015 C   0  0  0  0  0  0  0  0  0  0  0  0
  -12.7385  -28.5374    4.7690 H   0  0  0  0  0  0  0  0  0  0  0  0
  -13.1274  -28.6405    6.5179 H   0  0  0  0  0  0  0  0  0  0  0  0
  -12.3887  -30.0182    5.6824 H   0  0  0  0  0  0  0  0  0  0  0  0
  -11.5104  -26.6311    5.2199 H   0  0  0  0  0  0  0  0  0  0  0  0
   -9.6659  -26.2835    3.8680 H   0  0  0  0  0  0  0  0  0  0  0  0
   -8.6124  -20.5938    4.2642 H   0  0  0  0  0  0  0  0  0  0  0  0
   -9.4860  -19.3361    6.1414 H   0  0  0  0  0  0  0  0  0  0  0  0
  -10.8994  -20.3836    7.8875 H   0  0  0  0  0  0  0  0  0  0  0  0
  -11.8492  -22.6681    7.5327 H   0  0  0  0  0  0  0  0  0  0  0  0
  -10.3709  -27.5643    8.7677 H   0  0  0  0  0  0  0  0  0  0  0  0
  -11.4075  -26.5079   10.7664 H   0  0  0  0  0  0  0  0  0  0  0  0
  -13.2272  -24.8293   10.4324 H   0  0  0  0  0  0  0  0  0  0  0  0
  -13.0576  -25.2253    6.3472 H   0  0  0  0  0  0  0  0  0  0  0  0
  1  2  1  0
  2  3  1  0
  3  4  1  0
  4  5  2  0
  4  6  1  0
  6  7  1  0
  7  8  3  0
  6  9  1  0
  9 10  2  0
 10 11  1  0
 11 12  2  0
 12 13  1  0
 13 14  2  0
 14 15  1  0
 15 16  2  0
 16 17  1  0
  3 18  1  0
 18 19  2  0
 19 20  1  0
 20 21  2  0
 21 22  1  0
 22 23  2  0
 17  9  1  0
 23 18  1  0
 16 11  1  0
  1 24  1  0
  1 25  1  0
  1 26  1  0
  3 27  1  0
  6 28  1  0
 12 29  1  0
 13 30  1  0
 14 31  1  0
 15 32  1  0
 19 33  1  0
 20 34  1  0
 21 35  1  0
 23 36  1  0
M  END
>  <Energy>  (1147) 
70.17643300988216

>  <compound_id>  (1147) 
28064

>  <target_id>  (1147) 
1

>  <reference_id>  (1147) 
48

>  <inspiration_ids>  (1147) 
[48, 2]

>  <energy_score>  (1147) 
-6.258431991105951

>  <distance_score>  (1147) 
2.6514665637652906

>  <path>  (1147) 
/opt/xchem-fragalysis-2/maxwin/BulkDock/SCRATCH/511017/C28064-P48/C28064-P48.minimised.mol

>  <scratch_subdir>  (1147) 
/opt/xchem-fragalysis-2/maxwin/BulkDock/SCRATCH/511017/C28064-P48

>  <fragmenstein_runtime>  (1147) 
1.1144287586212158

>  <fragmenstein_outcome>  (1147) 
too moved

>  <fragmenstein_mode>  (1147) 
expansion

>  <fragmenstein_error>  (1147) 


$$$$
C28064-P2
     RDKit          3D

 36 38  0  0  0  0  0  0  0  0999 V2000
  -12.0293  -27.1710    3.6893 C   0  0  0  0  0  0  0  0  0  0  0  0
  -11.9001  -26.9479    5.0867 O   0  0  0  0  0  0  0  0  0  0  0  0
  -11.5517  -25.6040    5.4207 C   0  0  0  0  0  0  0  0  0  0  0  0
  -10.0771  -25.2421    5.0924 C   0  0  0  0  0  0  0  0  0  0  0  0
   -9.2243  -26.1216    4.9309 O   0  0  0  0  0  0  0  0  0  0  0  0
   -9.7506  -23.7629    4.9365 C   0  0  0  0  0  0  0  0  0  0  0  0
   -8.5705  -23.5545    4.0923 C   0  0  0  0  0  0  0  0  0  0  0  0
   -7.6640  -23.3458    3.3960 N   0  0  0  0  0  0  0  0  0  0  0  0
   -9.5182  -23.1490    6.2625 C   0  0  0  0  0  0  0  0  0  0  0  0
   -9.7426  -21.9019    6.6352 N   0  0  0  0  0  0  0  0  0  0  0  0
   -9.3695  -21.8921    7.9578 C   0  0  0  0  0  0  0  0  0  0  0  0
   -9.3050  -20.8557    8.8883 C   0  0  0  0  0  0  0  0  0  0  0  0
   -8.8291  -21.1609   10.1744 C   0  0  0  0  0  0  0  0  0  0  0  0
   -8.4786  -22.4660   10.5360 C   0  0  0  0  0  0  0  0  0  0  0  0
   -8.5479  -23.5140    9.6170 C   0  0  0  0  0  0  0  0  0  0  0  0
   -8.9718  -23.1598    8.3453 C   0  0  0  0  0  0  0  0  0  0  0  0
   -9.0418  -23.9656    7.2527 O   0  0  0  0  0  0  0  0  0  0  0  0
  -11.8736  -25.4394    6.8911 C   0  0  0  0  0  0  0  0  0  0  0  0
  -11.3684  -26.2960    7.8782 C   0  0  0  0  0  0  0  0  0  0  0  0
  -11.6678  -26.0654    9.2187 C   0  0  0  0  0  0  0  0  0  0  0  0
  -12.4658  -24.9800    9.5333 C   0  0  0  0  0  0  0  0  0  0  0  0
  -12.9813  -24.1356    8.6143 N   0  0  0  0  0  0  0  0  0  0  0  0
  -12.6859  -24.3940    7.3211 C   0  0  0  0  0  0  0  0  0  0  0  0
  -12.2937  -28.2204    3.5335 H   0  0  0  0  0  0  0  0  0  0  0  0
  -11.0891  -26.9702    3.1684 H   0  0  0  0  0  0  0  0  0  0  0  0
  -12.8278  -26.5477    3.2756 H   0  0  0  0  0  0  0  0  0  0  0  0
  -12.1954  -24.9379    4.8315 H   0  0  0  0  0  0  0  0  0  0  0  0
  -10.6080  -23.2803    4.4532 H   0  0  0  0  0  0  0  0  0  0  0  0
   -9.5774  -19.8485    8.6014 H   0  0  0  0  0  0  0  0  0  0  0  0
   -8.7090  -20.3700   10.9107 H   0  0  0  0  0  0  0  0  0  0  0  0
   -8.0886  -22.6513   11.5355 H   0  0  0  0  0  0  0  0  0  0  0  0
   -8.2366  -24.5204    9.8622 H   0  0  0  0  0  0  0  0  0  0  0  0
  -10.7386  -27.1400    7.6012 H   0  0  0  0  0  0  0  0  0  0  0  0
  -11.2837  -26.7164    9.9960 H   0  0  0  0  0  0  0  0  0  0  0  0
  -12.7216  -24.7598   10.5656 H   0  0  0  0  0  0  0  0  0  0  0  0
  -13.1348  -23.6941    6.6203 H   0  0  0  0  0  0  0  0  0  0  0  0
  1  2  1  0
  2  3  1  0
  3  4  1  0
  4  5  2  0
  4  6  1  0
  6  7  1  0
  7  8  3  0
  6  9  1  0
  9 10  2  0
 10 11  1  0
 11 12  2  0
 12 13  1  0
 13 14  2  0
 14 15  1  0
 15 16  2  0
 16 17  1  0
  3 18  1  0
 18 19  2  0
 19 20  1  0
 20 21  2  0
 21 22  1  0
 22 23  2  0
 17  9  1  0
 23 18  1  0
 16 11  1  0
  1 24  1  0
  1 25  1  0
  1 26  1  0
  3 27  1  0
  6 28  1  0
 12 29  1  0
 13 30  1  0
 14 31  1  0
 15 32  1  0
 19 33  1  0
 20 34  1  0
 21 35  1  0
 23 36  1  0
M  END
>  <Energy>  (1148) 
57.462269088350318

>  <compound_id>  (1148) 
28064

>  <target_id>  (1148) 
1

>  <reference_id>  (1148) 
2

>  <inspiration_ids>  (1148) 
[48, 2]

>  <energy_score>  (1148) 
-18.972595912636802

>  <distance_score>  (1148) 
0.8387588126476739

>  <path>  (1148) 
/opt/xchem-fragalysis-2/maxwin/BulkDock/SCRATCH/511017/C28064-P2/C28064-P2.minimised.mol

>  <scratch_subdir>  (1148) 
/opt/xchem-fragalysis-2/maxwin/BulkDock/SCRATCH/511017/C28064-P2

>  <fragmenstein_runtime>  (1148) 
1.1579649448394775

>  <fragmenstein_outcome>  (1148) 
acceptable

>  <fragmenstein_mode>  (1148) 
expansion

>  <fragmenstein_error>  (1148) 


$$$$
C28065-P48
     RDKit          3D

 40 43  0  0  0  0  0  0  0  0999 V2000
  -12.0519  -24.5172    9.7770 C   0  0  0  0  0  0  0  0  0  0  0  0
  -11.0306  -25.4764    9.9125 C   0  0  0  0  0  0  0  0  0  0  0  0
  -10.1930  -25.7999    8.8312 C   0  0  0  0  0  0  0  0  0  0  0  0
  -10.4349  -25.0962    7.6451 C   0  0  0  0  0  0  0  0  0  0  0  0
   -9.7854  -25.2235    6.4545 O   0  0  0  0  0  0  0  0  0  0  0  0
  -10.5056  -24.4032    5.6337 C   0  0  0  0  0  0  0  0  0  0  0  0
  -10.7246  -24.8738    4.3865 N   0  0  0  0  0  0  0  0  0  0  0  0
  -11.4025  -26.2130    4.3831 C   0  0  0  0  0  0  0  0  0  0  0  0
  -12.3929  -26.4740    5.5246 C   0  0  0  0  0  0  0  0  0  0  0  0
  -12.1565  -27.4247    6.5237 C   0  0  0  0  0  0  0  0  0  0  0  0
  -12.9762  -27.4729    7.6618 C   0  0  0  0  0  0  0  0  0  0  0  0
  -14.0498  -26.5966    7.7938 C   0  0  0  0  0  0  0  0  0  0  0  0
  -14.8746  -26.6099    8.8860 N   0  0  0  0  0  0  0  0  0  0  0  0
  -15.9008  -25.5892    9.0503 C   0  0  0  0  0  0  0  0  0  0  0  0
  -16.2344  -25.6544   10.5405 C   0  0  0  0  0  0  0  0  0  0  0  0
  -15.9553  -27.1062   10.8974 C   0  0  0  0  0  0  0  0  0  0  0  0
  -14.7135  -27.4313   10.0701 C   0  0  0  0  0  0  0  0  0  0  0  0
  -14.3230  -25.7191    6.8031 N   0  0  0  0  0  0  0  0  0  0  0  0
  -13.5143  -25.6775    5.7117 C   0  0  0  0  0  0  0  0  0  0  0  0
  -11.3290  -23.5655    6.2216 N   0  0  0  0  0  0  0  0  0  0  0  0
  -11.4129  -24.1102    7.4790 C   0  0  0  0  0  0  0  0  0  0  0  0
  -12.2639  -23.8293    8.5596 C   0  0  0  0  0  0  0  0  0  0  0  0
  -12.7143  -24.3215   10.6176 H   0  0  0  0  0  0  0  0  0  0  0  0
  -10.9006  -25.9913   10.8617 H   0  0  0  0  0  0  0  0  0  0  0  0
   -9.4046  -26.5371    8.8981 H   0  0  0  0  0  0  0  0  0  0  0  0
  -11.3212  -24.2134    3.8968 H   0  0  0  0  0  0  0  0  0  0  0  0
  -11.9349  -26.3256    3.4309 H   0  0  0  0  0  0  0  0  0  0  0  0
  -10.6239  -26.9860    4.3930 H   0  0  0  0  0  0  0  0  0  0  0  0
  -11.2935  -28.0829    6.4639 H   0  0  0  0  0  0  0  0  0  0  0  0
  -12.7454  -28.1925    8.4377 H   0  0  0  0  0  0  0  0  0  0  0  0
  -16.7794  -25.8406    8.4455 H   0  0  0  0  0  0  0  0  0  0  0  0
  -15.5594  -24.5816    8.7880 H   0  0  0  0  0  0  0  0  0  0  0  0
  -17.2639  -25.3530   10.7527 H   0  0  0  0  0  0  0  0  0  0  0  0
  -15.5611  -24.9968   11.1040 H   0  0  0  0  0  0  0  0  0  0  0  0
  -15.7971  -27.2590   11.9685 H   0  0  0  0  0  0  0  0  0  0  0  0
  -16.7950  -27.7362   10.5797 H   0  0  0  0  0  0  0  0  0  0  0  0
  -14.6753  -28.5010    9.8396 H   0  0  0  0  0  0  0  0  0  0  0  0
  -13.8068  -27.1466   10.6155 H   0  0  0  0  0  0  0  0  0  0  0  0
  -13.7750  -24.8995    4.9989 H   0  0  0  0  0  0  0  0  0  0  0  0
  -13.0743  -23.1245    8.4321 H   0  0  0  0  0  0  0  0  0  0  0  0
  1  2  2  0
  2  3  1  0
  3  4  2  0
  4  5  1  0
  5  6  1  0
  6  7  1  0
  7  8  1  0
  8  9  1  0
  9 10  2  0
 10 11  1  0
 11 12  2  0
 12 13  1  0
 13 14  1  0
 14 15  1  0
 15 16  1  0
 16 17  1  0
 12 18  1  0
 18 19  2  0
  6 20  2  0
 20 21  1  0
 21 22  2  0
 22  1  1  0
 21  4  1  0
 19  9  1  0
 17 13  1  0
  1 23  1  0
  2 24  1  0
  3 25  1  0
  7 26  1  0
  8 27  1  0
  8 28  1  0
 10 29  1  0
 11 30  1  0
 14 31  1  0
 14 32  1  0
 15 33  1  0
 15 34  1  0
 16 35  1  0
 16 36  1  0
 17 37  1  0
 17 38  1  0
 19 39  1  0
 22 40  1  0
M  END
>  <Energy>  (1149) 
-20.397119529712164

>  <compound_id>  (1149) 
28065

>  <target_id>  (1149) 
1

>  <reference_id>  (1149) 
48

>  <inspiration_ids>  (1149) 
[48, 2]

>  <energy_score>  (1149) 
-8.686037793899018

>  <distance_score>  (1149) 
3.2193897005595105

>  <path>  (1149) 
/opt/xchem-fragalysis-2/maxwin/BulkDock/SCRATCH/511017/C28065-P48/C28065-P48.minimised.mol

>  <scratch_subdir>  (1149) 
/opt/xchem-fragalysis-2/maxwin/BulkDock/SCRATCH/511017/C28065-P48

>  <fragmenstein_runtime>  (1149) 
1.388054609298706

>  <fragmenstein_outcome>  (1149) 
too moved

>  <fragmenstein_mode>  (1149) 
expansion

>  <fragmenstein_error>  (1149) 


$$$$
C28065-P2
     RDKit          3D

 40 43  0  0  0  0  0  0  0  0999 V2000
   -8.7696  -21.1053   10.2091 C   0  0  0  0  0  0  0  0  0  0  0  0
   -8.4096  -22.3948   10.6136 C   0  0  0  0  0  0  0  0  0  0  0  0
   -8.4667  -23.4702    9.7285 C   0  0  0  0  0  0  0  0  0  0  0  0
   -8.9017  -23.1605    8.4496 C   0  0  0  0  0  0  0  0  0  0  0  0
   -9.0155  -24.0131    7.4002 O   0  0  0  0  0  0  0  0  0  0  0  0
   -9.6017  -23.2552    6.4292 C   0  0  0  0  0  0  0  0  0  0  0  0
  -10.1230  -23.9144    5.3768 N   0  0  0  0  0  0  0  0  0  0  0  0
  -10.6774  -25.2553    5.6260 C   0  0  0  0  0  0  0  0  0  0  0  0
  -11.5897  -25.3375    6.8356 C   0  0  0  0  0  0  0  0  0  0  0  0
  -11.2563  -26.0746    7.9741 C   0  0  0  0  0  0  0  0  0  0  0  0
  -12.0643  -26.0068    9.1130 C   0  0  0  0  0  0  0  0  0  0  0  0
  -13.2243  -25.2363    9.1033 C   0  0  0  0  0  0  0  0  0  0  0  0
  -14.0462  -25.1428   10.2051 N   0  0  0  0  0  0  0  0  0  0  0  0
  -15.3278  -24.4574   10.0634 C   0  0  0  0  0  0  0  0  0  0  0  0
  -15.9901  -24.6926   11.4169 C   0  0  0  0  0  0  0  0  0  0  0  0
  -15.5433  -26.1041   11.7599 C   0  0  0  0  0  0  0  0  0  0  0  0
  -14.1043  -26.1651   11.2440 C   0  0  0  0  0  0  0  0  0  0  0  0
  -13.5591  -24.5354    7.9973 N   0  0  0  0  0  0  0  0  0  0  0  0
  -12.7581  -24.5990    6.9074 C   0  0  0  0  0  0  0  0  0  0  0  0
   -9.7144  -21.9763    6.7077 N   0  0  0  0  0  0  0  0  0  0  0  0
   -9.3056  -21.9100    8.0166 C   0  0  0  0  0  0  0  0  0  0  0  0
   -9.2379  -20.8417    8.9104 C   0  0  0  0  0  0  0  0  0  0  0  0
   -8.6638  -20.2955   10.9252 H   0  0  0  0  0  0  0  0  0  0  0  0
   -8.0253  -22.5469   11.6204 H   0  0  0  0  0  0  0  0  0  0  0  0
   -8.1610  -24.4686   10.0086 H   0  0  0  0  0  0  0  0  0  0  0  0
  -10.7389  -23.3243    4.8277 H   0  0  0  0  0  0  0  0  0  0  0  0
  -11.2425  -25.5706    4.7405 H   0  0  0  0  0  0  0  0  0  0  0  0
   -9.8517  -25.9711    5.7274 H   0  0  0  0  0  0  0  0  0  0  0  0
  -10.3390  -26.6570    8.0064 H   0  0  0  0  0  0  0  0  0  0  0  0
  -11.7616  -26.5464   10.0027 H   0  0  0  0  0  0  0  0  0  0  0  0
  -15.9310  -24.9142    9.2686 H   0  0  0  0  0  0  0  0  0  0  0  0
  -15.2128  -23.3878    9.8606 H   0  0  0  0  0  0  0  0  0  0  0  0
  -17.0777  -24.5877   11.3768 H   0  0  0  0  0  0  0  0  0  0  0  0
  -15.6001  -23.9883   12.1606 H   0  0  0  0  0  0  0  0  0  0  0  0
  -15.6135  -26.3255   12.8287 H   0  0  0  0  0  0  0  0  0  0  0  0
  -16.1629  -26.8313   11.2210 H   0  0  0  0  0  0  0  0  0  0  0  0
  -13.8886  -27.1742   10.8755 H   0  0  0  0  0  0  0  0  0  0  0  0
  -13.3962  -25.9177   12.0425 H   0  0  0  0  0  0  0  0  0  0  0  0
  -13.0886  -23.9825    6.0758 H   0  0  0  0  0  0  0  0  0  0  0  0
   -9.5247  -19.8491    8.5901 H   0  0  0  0  0  0  0  0  0  0  0  0
  1  2  2  0
  2  3  1  0
  3  4  2  0
  4  5  1  0
  5  6  1  0
  6  7  1  0
  7  8  1  0
  8  9  1  0
  9 10  2  0
 10 11  1  0
 11 12  2  0
 12 13  1  0
 13 14  1  0
 14 15  1  0
 15 16  1  0
 16 17  1  0
 12 18  1  0
 18 19  2  0
  6 20  2  0
 20 21  1  0
 21 22  2  0
 22  1  1  0
 21  4  1  0
 19  9  1  0
 17 13  1  0
  1 23  1  0
  2 24  1  0
  3 25  1  0
  7 26  1  0
  8 27  1  0
  8 28  1  0
 10 29  1  0
 11 30  1  0
 14 31  1  0
 14 32  1  0
 15 33  1  0
 15 34  1  0
 16 35  1  0
 16 36  1  0
 17 37  1  0
 17 38  1  0
 19 39  1  0
 22 40  1  0
M  END
>  <Energy>  (1150) 
-42.132409765946058

>  <compound_id>  (1150) 
28065

>  <target_id>  (1150) 
1

>  <reference_id>  (1150) 
2

>  <inspiration_ids>  (1150) 
[48, 2]

>  <energy_score>  (1150) 
-30.42132803013201

>  <distance_score>  (1150) 
1.0207629034063588

>  <path>  (1150) 
/opt/xchem-fragalysis-2/maxwin/BulkDock/SCRATCH/511017/C28065-P2/C28065-P2.minimised.mol

>  <scratch_subdir>  (1150) 
/opt/xchem-fragalysis-2/maxwin/BulkDock/SCRATCH/511017/C28065-P2

>  <fragmenstein_runtime>  (1150) 
1.0639228820800781

>  <fragmenstein_outcome>  (1150) 
too moved

>  <fragmenstein_mode>  (1150) 
expansion

>  <fragmenstein_error>  (1150) 


$$$$
C28066-P48
     RDKit          3D

 48 51  0  0  0  0  0  0  0  0999 V2000
  -12.8188  -26.0142    7.9234 O   0  0  0  0  0  0  0  0  0  0  0  0
  -12.4709  -24.9218    8.1535 C   0  0  0  0  0  0  0  0  0  0  0  0
  -12.4274  -23.8019    7.0783 C   0  0  0  0  0  0  0  0  0  0  0  0
  -12.1111  -24.2667    5.6398 C   0  0  0  0  0  0  0  0  0  0  0  0
  -10.7903  -23.6986    5.0570 C   0  0  0  0  0  0  0  0  0  0  0  0
   -9.6121  -24.1972    5.7921 C   0  0  0  0  0  0  0  0  0  0  0  0
   -9.6017  -25.0705    6.7745 N   0  0  0  0  0  0  0  0  0  0  0  0
   -8.3439  -24.9544    7.2833 C   0  0  0  0  0  0  0  0  0  0  0  0
   -7.7853  -25.4464    8.4678 C   0  0  0  0  0  0  0  0  0  0  0  0
   -6.4930  -25.0533    8.8152 C   0  0  0  0  0  0  0  0  0  0  0  0
   -5.7402  -24.2847    7.9335 C   0  0  0  0  0  0  0  0  0  0  0  0
   -6.2587  -23.8334    6.7120 C   0  0  0  0  0  0  0  0  0  0  0  0
   -7.5857  -24.1373    6.4716 C   0  0  0  0  0  0  0  0  0  0  0  0
   -8.3972  -23.6445    5.4907 O   0  0  0  0  0  0  0  0  0  0  0  0
  -12.0780  -24.2505    9.5058 N   0  0  0  0  0  0  0  0  0  0  0  0
  -11.9418  -24.8242   10.8495 C   0  0  0  0  0  0  0  0  0  0  0  0
  -10.7725  -25.8066   10.9477 C   0  0  0  0  0  0  0  0  0  0  0  0
   -9.8863  -25.3056   12.0905 C   0  0  0  0  0  0  0  0  0  0  0  0
  -10.7734  -24.5258   12.9579 N   0  0  0  0  0  0  0  0  0  0  0  0
  -11.4735  -25.3523   13.8713 C   0  0  0  0  0  0  0  0  0  0  0  0
  -10.7601  -26.0891   14.8198 C   0  0  0  0  0  0  0  0  0  0  0  0
  -11.4298  -26.9418   15.6968 C   0  0  0  0  0  0  0  0  0  0  0  0
  -12.8097  -27.0357   15.6240 C   0  0  0  0  0  0  0  0  0  0  0  0
  -13.4558  -26.2626   14.6793 C   0  0  0  0  0  0  0  0  0  0  0  0
  -12.8214  -25.4284   13.8253 N   0  0  0  0  0  0  0  0  0  0  0  0
  -11.6657  -23.8225   12.0117 C   0  0  0  0  0  0  0  0  0  0  0  0
  -13.4401  -23.3760    7.0827 H   0  0  0  0  0  0  0  0  0  0  0  0
  -11.7625  -22.9852    7.3645 H   0  0  0  0  0  0  0  0  0  0  0  0
  -12.1015  -25.3610    5.5721 H   0  0  0  0  0  0  0  0  0  0  0  0
  -12.9233  -23.9225    4.9867 H   0  0  0  0  0  0  0  0  0  0  0  0
  -10.8159  -22.6035    5.0899 H   0  0  0  0  0  0  0  0  0  0  0  0
  -10.7102  -23.9949    4.0051 H   0  0  0  0  0  0  0  0  0  0  0  0
   -8.3552  -26.1010    9.1091 H   0  0  0  0  0  0  0  0  0  0  0  0
   -6.0526  -25.3954    9.7477 H   0  0  0  0  0  0  0  0  0  0  0  0
   -4.7158  -24.0343    8.1845 H   0  0  0  0  0  0  0  0  0  0  0  0
   -5.6865  -23.2076    6.0403 H   0  0  0  0  0  0  0  0  0  0  0  0
  -11.7460  -23.3113    9.3332 H   0  0  0  0  0  0  0  0  0  0  0  0
  -12.8741  -25.3708   11.0333 H   0  0  0  0  0  0  0  0  0  0  0  0
  -11.1609  -26.8016   11.1999 H   0  0  0  0  0  0  0  0  0  0  0  0
  -10.2220  -25.9134   10.0146 H   0  0  0  0  0  0  0  0  0  0  0  0
   -9.1119  -24.6449   11.6952 H   0  0  0  0  0  0  0  0  0  0  0  0
   -9.3598  -26.1314   12.5815 H   0  0  0  0  0  0  0  0  0  0  0  0
   -9.6808  -26.0060   14.8745 H   0  0  0  0  0  0  0  0  0  0  0  0
  -10.8720  -27.5345   16.4147 H   0  0  0  0  0  0  0  0  0  0  0  0
  -13.3673  -27.6977   16.2758 H   0  0  0  0  0  0  0  0  0  0  0  0
  -14.5363  -26.2942   14.5716 H   0  0  0  0  0  0  0  0  0  0  0  0
  -12.5821  -23.4265   12.4612 H   0  0  0  0  0  0  0  0  0  0  0  0
  -11.0946  -22.9681   11.6334 H   0  0  0  0  0  0  0  0  0  0  0  0
  1  2  2  0
  2  3  1  0
  3  4  1  0
  4  5  1  0
  5  6  1  0
  6  7  2  0
  7  8  1  0
  8  9  2  0
  9 10  1  0
 10 11  2  0
 11 12  1  0
 12 13  2  0
 13 14  1  0
  2 15  1  0
 15 16  1  0
 16 17  1  0
 17 18  1  0
 18 19  1  0
 19 20  1  0
 20 21  2  0
 21 22  1  0
 22 23  2  0
 23 24  1  0
 24 25  2  0
 19 26  1  0
 14  6  1  0
 26 16  1  0
 13  8  1  0
 25 20  1  0
  3 27  1  0
  3 28  1  0
  4 29  1  0
  4 30  1  0
  5 31  1  0
  5 32  1  0
  9 33  1  0
 10 34  1  0
 11 35  1  0
 12 36  1  0
 15 37  1  0
 16 38  1  0
 17 39  1  0
 17 40  1  0
 18 41  1  0
 18 42  1  0
 21 43  1  0
 22 44  1  0
 23 45  1  0
 24 46  1  0
 26 47  1  0
 26 48  1  0
M  END
>  <Energy>  (1151) 
31.768761434158883

>  <compound_id>  (1151) 
28066

>  <target_id>  (1151) 
1

>  <reference_id>  (1151) 
48

>  <inspiration_ids>  (1151) 
[48, 2]

>  <energy_score>  (1151) 
-6.067095574540474

>  <distance_score>  (1151) 
3.2660415330526487

>  <path>  (1151) 
/opt/xchem-fragalysis-2/maxwin/BulkDock/SCRATCH/511017/C28066-P48/C28066-P48.minimised.mol

>  <scratch_subdir>  (1151) 
/opt/xchem-fragalysis-2/maxwin/BulkDock/SCRATCH/511017/C28066-P48

>  <fragmenstein_runtime>  (1151) 
7.658043622970581

>  <fragmenstein_outcome>  (1151) 
too moved

>  <fragmenstein_mode>  (1151) 
expansion

>  <fragmenstein_error>  (1151) 


$$$$
C28066-P2
     RDKit          3D

 48 51  0  0  0  0  0  0  0  0999 V2000
  -12.9263  -26.1770    8.1302 O   0  0  0  0  0  0  0  0  0  0  0  0
  -12.4390  -25.1257    8.2874 C   0  0  0  0  0  0  0  0  0  0  0  0
  -12.3106  -24.1418    7.1133 C   0  0  0  0  0  0  0  0  0  0  0  0
  -11.3920  -24.7144    6.0058 C   0  0  0  0  0  0  0  0  0  0  0  0
  -10.4483  -23.6882    5.3312 C   0  0  0  0  0  0  0  0  0  0  0  0
   -9.6863  -22.9690    6.3743 C   0  0  0  0  0  0  0  0  0  0  0  0
   -9.8441  -21.7176    6.7556 N   0  0  0  0  0  0  0  0  0  0  0  0
   -9.3440  -21.7197    8.0267 C   0  0  0  0  0  0  0  0  0  0  0  0
   -9.3073  -20.7187    8.9902 C   0  0  0  0  0  0  0  0  0  0  0  0
   -8.7692  -21.0370   10.2456 C   0  0  0  0  0  0  0  0  0  0  0  0
   -8.2947  -22.3179   10.5314 C   0  0  0  0  0  0  0  0  0  0  0  0
   -8.3118  -23.3270    9.5676 C   0  0  0  0  0  0  0  0  0  0  0  0
   -8.8461  -22.9707    8.3427 C   0  0  0  0  0  0  0  0  0  0  0  0
   -9.0083  -23.7678    7.2554 O   0  0  0  0  0  0  0  0  0  0  0  0
  -11.8489  -24.4690    9.5707 N   0  0  0  0  0  0  0  0  0  0  0  0
  -11.6522  -25.0145   10.9060 C   0  0  0  0  0  0  0  0  0  0  0  0
  -10.3868  -25.8705   10.9808 C   0  0  0  0  0  0  0  0  0  0  0  0
   -9.6656  -25.4391   12.2579 C   0  0  0  0  0  0  0  0  0  0  0  0
  -10.6649  -24.7521   13.0780 N   0  0  0  0  0  0  0  0  0  0  0  0
  -11.4063  -25.6460   13.8907 C   0  0  0  0  0  0  0  0  0  0  0  0
  -10.7518  -26.4341   14.8397 C   0  0  0  0  0  0  0  0  0  0  0  0
  -11.4721  -27.3220   15.6390 C   0  0  0  0  0  0  0  0  0  0  0  0
  -12.8453  -27.4064   15.4864 C   0  0  0  0  0  0  0  0  0  0  0  0
  -13.4343  -26.5899   14.5421 C   0  0  0  0  0  0  0  0  0  0  0  0
  -12.7498  -25.7216   13.7636 N   0  0  0  0  0  0  0  0  0  0  0  0
  -11.5002  -24.0343   12.0952 C   0  0  0  0  0  0  0  0  0  0  0  0
  -12.0021  -23.1567    7.4658 H   0  0  0  0  0  0  0  0  0  0  0  0
  -13.3194  -23.9982    6.7060 H   0  0  0  0  0  0  0  0  0  0  0  0
  -10.7805  -25.5284    6.4182 H   0  0  0  0  0  0  0  0  0  0  0  0
  -12.0165  -25.1741    5.2295 H   0  0  0  0  0  0  0  0  0  0  0  0
  -11.0405  -22.9774    4.7445 H   0  0  0  0  0  0  0  0  0  0  0  0
   -9.7663  -24.2016    4.6456 H   0  0  0  0  0  0  0  0  0  0  0  0
   -9.6939  -19.7375    8.7527 H   0  0  0  0  0  0  0  0  0  0  0  0
   -8.6942  -20.2762   11.0180 H   0  0  0  0  0  0  0  0  0  0  0  0
   -7.8432  -22.5058   11.5054 H   0  0  0  0  0  0  0  0  0  0  0  0
   -7.9004  -24.3094    9.7523 H   0  0  0  0  0  0  0  0  0  0  0  0
  -11.4316  -23.5769    9.3335 H   0  0  0  0  0  0  0  0  0  0  0  0
  -12.5143  -25.6702   11.0789 H   0  0  0  0  0  0  0  0  0  0  0  0
   -9.7386  -25.7830   10.1044 H   0  0  0  0  0  0  0  0  0  0  0  0
  -10.6695  -26.9283   11.0540 H   0  0  0  0  0  0  0  0  0  0  0  0
   -8.8736  -24.7299   12.0078 H   0  0  0  0  0  0  0  0  0  0  0  0
   -9.1779  -26.2955   12.7342 H   0  0  0  0  0  0  0  0  0  0  0  0
   -9.6792  -26.3599   14.9700 H   0  0  0  0  0  0  0  0  0  0  0  0
  -10.9559  -27.9408   16.3660 H   0  0  0  0  0  0  0  0  0  0  0  0
  -13.4409  -28.0889   16.0808 H   0  0  0  0  0  0  0  0  0  0  0  0
  -14.5073  -26.6086   14.3747 H   0  0  0  0  0  0  0  0  0  0  0  0
  -12.4596  -23.7087   12.5040 H   0  0  0  0  0  0  0  0  0  0  0  0
  -10.9576  -23.1380   11.7769 H   0  0  0  0  0  0  0  0  0  0  0  0
  1  2  2  0
  2  3  1  0
  3  4  1  0
  4  5  1  0
  5  6  1  0
  6  7  2  0
  7  8  1  0
  8  9  2  0
  9 10  1  0
 10 11  2  0
 11 12  1  0
 12 13  2  0
 13 14  1  0
  2 15  1  0
 15 16  1  0
 16 17  1  0
 17 18  1  0
 18 19  1  0
 19 20  1  0
 20 21  2  0
 21 22  1  0
 22 23  2  0
 23 24  1  0
 24 25  2  0
 19 26  1  0
 14  6  1  0
 26 16  1  0
 13  8  1  0
 25 20  1  0
  3 27  1  0
  3 28  1  0
  4 29  1  0
  4 30  1  0
  5 31  1  0
  5 32  1  0
  9 33  1  0
 10 34  1  0
 11 35  1  0
 12 36  1  0
 15 37  1  0
 16 38  1  0
 17 39  1  0
 17 40  1  0
 18 41  1  0
 18 42  1  0
 21 43  1  0
 22 44  1  0
 23 45  1  0
 24 46  1  0
 26 47  1  0
 26 48  1  0
M  END
>  <Energy>  (1152) 
31.712726554971255

>  <compound_id>  (1152) 
28066

>  <target_id>  (1152) 
1

>  <reference_id>  (1152) 
2

>  <inspiration_ids>  (1152) 
[48, 2]

>  <energy_score>  (1152) 
-6.123130453729274

>  <distance_score>  (1152) 
2.090866078341122

>  <path>  (1152) 
/opt/xchem-fragalysis-2/maxwin/BulkDock/SCRATCH/511017/C28066-P2/C28066-P2.minimised.mol

>  <scratch_subdir>  (1152) 
/opt/xchem-fragalysis-2/maxwin/BulkDock/SCRATCH/511017/C28066-P2

>  <fragmenstein_runtime>  (1152) 
6.1401588916778564

>  <fragmenstein_outcome>  (1152) 
too moved

>  <fragmenstein_mode>  (1152) 
expansion

>  <fragmenstein_error>  (1152) 


$$$$
C28067-P48
     RDKit          3D

 43 45  0  0  0  0  0  0  0  0999 V2000
  -15.5045  -26.2548   11.2002 C   0  0  0  0  0  0  0  0  0  0  0  0
  -14.9441  -24.8665   10.9424 C   0  0  0  0  0  0  0  0  0  0  0  0
  -13.1374  -24.8100   11.1861 S   0  0  0  0  0  0  0  0  0  0  0  0
  -12.5505  -25.6025    9.6999 C   0  0  0  0  0  0  0  0  0  0  0  0
  -11.2270  -26.0294    9.6589 C   0  0  0  0  0  0  0  0  0  0  0  0
  -10.7510  -26.6856    8.5175 C   0  0  0  0  0  0  0  0  0  0  0  0
   -9.3208  -27.1418    8.4242 C   0  0  0  0  0  0  0  0  0  0  0  0
   -8.4133  -26.1575    7.8921 N   0  0  0  0  0  0  0  0  0  0  0  0
   -7.2289  -26.3108    6.9022 C   0  0  0  0  0  0  0  0  0  0  0  0
   -6.7592  -27.2690    6.4264 O   0  0  0  0  0  0  0  0  0  0  0  0
   -6.6003  -24.9358    6.6614 C   0  0  0  0  0  0  0  0  0  0  0  0
   -6.9542  -24.3621    5.2877 C   0  0  0  0  0  0  0  0  0  0  0  0
   -8.1866  -23.5732    5.3488 C   0  0  0  0  0  0  0  0  0  0  0  0
   -8.3897  -22.3164    5.0071 N   0  0  0  0  0  0  0  0  0  0  0  0
   -9.6841  -22.1123    5.3828 C   0  0  0  0  0  0  0  0  0  0  0  0
  -10.4763  -20.9792    5.3045 C   0  0  0  0  0  0  0  0  0  0  0  0
  -11.7866  -21.1282    5.7530 C   0  0  0  0  0  0  0  0  0  0  0  0
  -12.2409  -22.2732    6.4148 C   0  0  0  0  0  0  0  0  0  0  0  0
  -11.4282  -23.3779    6.5469 C   0  0  0  0  0  0  0  0  0  0  0  0
  -10.1874  -23.2572    5.9694 C   0  0  0  0  0  0  0  0  0  0  0  0
   -9.2420  -24.2154    5.9095 O   0  0  0  0  0  0  0  0  0  0  0  0
  -11.6422  -26.9096    7.4666 C   0  0  0  0  0  0  0  0  0  0  0  0
  -12.9425  -26.4458    7.5895 C   0  0  0  0  0  0  0  0  0  0  0  0
  -13.4040  -25.7756    8.6685 N   0  0  0  0  0  0  0  0  0  0  0  0
  -15.1142  -26.9952   10.4954 H   0  0  0  0  0  0  0  0  0  0  0  0
  -15.2802  -26.5934   12.2174 H   0  0  0  0  0  0  0  0  0  0  0  0
  -16.5941  -26.2401   11.0910 H   0  0  0  0  0  0  0  0  0  0  0  0
  -15.3868  -24.1696   11.6619 H   0  0  0  0  0  0  0  0  0  0  0  0
  -15.2168  -24.5050    9.9461 H   0  0  0  0  0  0  0  0  0  0  0  0
  -10.5697  -25.8628   10.5073 H   0  0  0  0  0  0  0  0  0  0  0  0
   -8.9502  -27.4120    9.4196 H   0  0  0  0  0  0  0  0  0  0  0  0
   -9.2422  -28.0463    7.8105 H   0  0  0  0  0  0  0  0  0  0  0  0
   -8.6108  -25.1655    8.0372 H   0  0  0  0  0  0  0  0  0  0  0  0
   -5.5147  -25.0969    6.7068 H   0  0  0  0  0  0  0  0  0  0  0  0
   -6.8281  -24.2460    7.4791 H   0  0  0  0  0  0  0  0  0  0  0  0
   -6.1371  -23.7096    4.9579 H   0  0  0  0  0  0  0  0  0  0  0  0
   -7.0555  -25.1566    4.5401 H   0  0  0  0  0  0  0  0  0  0  0  0
  -10.1311  -20.0681    4.8319 H   0  0  0  0  0  0  0  0  0  0  0  0
  -12.4981  -20.3437    5.5062 H   0  0  0  0  0  0  0  0  0  0  0  0
  -13.2744  -22.3428    6.7473 H   0  0  0  0  0  0  0  0  0  0  0  0
  -11.7496  -24.2729    7.0364 H   0  0  0  0  0  0  0  0  0  0  0  0
  -11.3261  -27.4153    6.5591 H   0  0  0  0  0  0  0  0  0  0  0  0
  -13.6632  -26.5887    6.7890 H   0  0  0  0  0  0  0  0  0  0  0  0
  1  2  1  0
  2  3  1  0
  3  4  1  0
  4  5  2  0
  5  6  1  0
  6  7  1  0
  7  8  1  0
  8  9  1  0
  9 10  2  0
  9 11  1  0
 11 12  1  0
 12 13  1  0
 13 14  2  0
 14 15  1  0
 15 16  2  0
 16 17  1  0
 17 18  2  0
 18 19  1  0
 19 20  2  0
 20 21  1  0
  6 22  2  0
 22 23  1  0
 23 24  2  0
 24  4  1  0
 21 13  1  0
 20 15  1  0
  1 25  1  0
  1 26  1  0
  1 27  1  0
  2 28  1  0
  2 29  1  0
  5 30  1  0
  7 31  1  0
  7 32  1  0
  8 33  1  0
 11 34  1  0
 11 35  1  0
 12 36  1  0
 12 37  1  0
 16 38  1  0
 17 39  1  0
 18 40  1  0
 19 41  1  0
 22 42  1  0
 23 43  1  0
M  END
>  <Energy>  (1153) 
-0.76072447993567893

>  <compound_id>  (1153) 
28067

>  <target_id>  (1153) 
1

>  <reference_id>  (1153) 
48

>  <inspiration_ids>  (1153) 
[48, 2]

>  <energy_score>  (1153) 
-7.052803327675647

>  <distance_score>  (1153) 
2.8721900077212403

>  <path>  (1153) 
/opt/xchem-fragalysis-2/maxwin/BulkDock/SCRATCH/511017/C28067-P48/C28067-P48.minimised.mol

>  <scratch_subdir>  (1153) 
/opt/xchem-fragalysis-2/maxwin/BulkDock/SCRATCH/511017/C28067-P48

>  <fragmenstein_runtime>  (1153) 
2.480748414993286

>  <fragmenstein_outcome>  (1153) 
too moved

>  <fragmenstein_mode>  (1153) 
expansion

>  <fragmenstein_error>  (1153) 


$$$$
C28067-P2
     RDKit          3D

 43 45  0  0  0  0  0  0  0  0999 V2000
  -14.2403  -24.8390   12.8161 C   0  0  0  0  0  0  0  0  0  0  0  0
  -13.1053  -25.8049   12.5287 C   0  0  0  0  0  0  0  0  0  0  0  0
  -11.7491  -25.0148   11.6019 S   0  0  0  0  0  0  0  0  0  0  0  0
  -12.2635  -25.3954    9.9399 C   0  0  0  0  0  0  0  0  0  0  0  0
  -11.3571  -25.9807    9.0678 C   0  0  0  0  0  0  0  0  0  0  0  0
  -11.7763  -26.3007    7.7744 C   0  0  0  0  0  0  0  0  0  0  0  0
  -10.8106  -26.7462    6.7148 C   0  0  0  0  0  0  0  0  0  0  0  0
  -10.5794  -25.6362    5.8310 N   0  0  0  0  0  0  0  0  0  0  0  0
   -9.8624  -25.5743    4.4669 C   0  0  0  0  0  0  0  0  0  0  0  0
   -9.2804  -26.3963    3.8821 O   0  0  0  0  0  0  0  0  0  0  0  0
  -10.0100  -24.1420    3.9599 C   0  0  0  0  0  0  0  0  0  0  0  0
   -8.9045  -23.2391    4.4856 C   0  0  0  0  0  0  0  0  0  0  0  0
   -9.0922  -22.8203    5.8998 C   0  0  0  0  0  0  0  0  0  0  0  0
   -9.4696  -21.6463    6.3670 N   0  0  0  0  0  0  0  0  0  0  0  0
   -9.2837  -21.7676    7.7232 C   0  0  0  0  0  0  0  0  0  0  0  0
   -9.3527  -20.8219    8.7478 C   0  0  0  0  0  0  0  0  0  0  0  0
   -8.9667  -21.2230   10.0374 C   0  0  0  0  0  0  0  0  0  0  0  0
   -8.6101  -22.5462   10.3156 C   0  0  0  0  0  0  0  0  0  0  0  0
   -8.5682  -23.5108    9.3059 C   0  0  0  0  0  0  0  0  0  0  0  0
   -8.8771  -23.0549    8.0317 C   0  0  0  0  0  0  0  0  0  0  0  0
   -8.7510  -23.7372    6.8588 O   0  0  0  0  0  0  0  0  0  0  0  0
  -13.1004  -26.0445    7.4169 C   0  0  0  0  0  0  0  0  0  0  0  0
  -13.9220  -25.4307    8.3388 C   0  0  0  0  0  0  0  0  0  0  0  0
  -13.5285  -25.0900    9.5826 N   0  0  0  0  0  0  0  0  0  0  0  0
  -13.8930  -23.9769   13.3928 H   0  0  0  0  0  0  0  0  0  0  0  0
  -14.7162  -24.4756   11.9009 H   0  0  0  0  0  0  0  0  0  0  0  0
  -15.0122  -25.3408   13.4093 H   0  0  0  0  0  0  0  0  0  0  0  0
  -13.4717  -26.6900   11.9983 H   0  0  0  0  0  0  0  0  0  0  0  0
  -12.6875  -26.1519   13.4797 H   0  0  0  0  0  0  0  0  0  0  0  0
  -10.3331  -26.1627    9.3774 H   0  0  0  0  0  0  0  0  0  0  0  0
   -9.8482  -27.0562    7.1338 H   0  0  0  0  0  0  0  0  0  0  0  0
  -11.2074  -27.5851    6.1339 H   0  0  0  0  0  0  0  0  0  0  0  0
  -11.0556  -24.7578    6.0034 H   0  0  0  0  0  0  0  0  0  0  0  0
  -11.0064  -23.7489    4.1924 H   0  0  0  0  0  0  0  0  0  0  0  0
   -9.9495  -24.1901    2.8652 H   0  0  0  0  0  0  0  0  0  0  0  0
   -7.9291  -23.7301    4.3838 H   0  0  0  0  0  0  0  0  0  0  0  0
   -8.8663  -22.3347    3.8662 H   0  0  0  0  0  0  0  0  0  0  0  0
   -9.6207  -19.7978    8.5239 H   0  0  0  0  0  0  0  0  0  0  0  0
   -8.9269  -20.4922   10.8424 H   0  0  0  0  0  0  0  0  0  0  0  0
   -8.3056  -22.8124   11.3266 H   0  0  0  0  0  0  0  0  0  0  0  0
   -8.2298  -24.5211    9.4911 H   0  0  0  0  0  0  0  0  0  0  0  0
  -13.4716  -26.2669    6.4210 H   0  0  0  0  0  0  0  0  0  0  0  0
  -14.9517  -25.1831    8.0957 H   0  0  0  0  0  0  0  0  0  0  0  0
  1  2  1  0
  2  3  1  0
  3  4  1  0
  4  5  2  0
  5  6  1  0
  6  7  1  0
  7  8  1  0
  8  9  1  0
  9 10  2  0
  9 11  1  0
 11 12  1  0
 12 13  1  0
 13 14  2  0
 14 15  1  0
 15 16  2  0
 16 17  1  0
 17 18  2  0
 18 19  1  0
 19 20  2  0
 20 21  1  0
  6 22  2  0
 22 23  1  0
 23 24  2  0
 24  4  1  0
 21 13  1  0
 20 15  1  0
  1 25  1  0
  1 26  1  0
  1 27  1  0
  2 28  1  0
  2 29  1  0
  5 30  1  0
  7 31  1  0
  7 32  1  0
  8 33  1  0
 11 34  1  0
 11 35  1  0
 12 36  1  0
 12 37  1  0
 16 38  1  0
 17 39  1  0
 18 40  1  0
 19 41  1  0
 22 42  1  0
 23 43  1  0
M  END
>  <Energy>  (1154) 
-2.7475737336931725

>  <compound_id>  (1154) 
28067

>  <target_id>  (1154) 
1

>  <reference_id>  (1154) 
2

>  <inspiration_ids>  (1154) 
[48, 2]

>  <energy_score>  (1154) 
-9.039652581432229

>  <distance_score>  (1154) 
1.5942567140423651

>  <path>  (1154) 
/opt/xchem-fragalysis-2/maxwin/BulkDock/SCRATCH/511017/C28067-P2/C28067-P2.minimised.mol

>  <scratch_subdir>  (1154) 
/opt/xchem-fragalysis-2/maxwin/BulkDock/SCRATCH/511017/C28067-P2

>  <fragmenstein_runtime>  (1154) 
1.6837856769561768

>  <fragmenstein_outcome>  (1154) 
too moved

>  <fragmenstein_mode>  (1154) 
expansion

>  <fragmenstein_error>  (1154) 


$$$$
C28069-P48
     RDKit          3D

 30 32  0  0  0  0  0  0  0  0999 V2000
   -9.2069  -26.6670    4.0743 C   0  0  0  0  0  0  0  0  0  0  0  0
   -9.7800  -26.0349    5.3442 C   0  0  0  0  0  0  0  0  0  0  0  0
  -11.5937  -26.4514    5.3849 S   0  0  0  0  0  0  0  0  0  0  0  0
  -11.8857  -26.2792    7.1372 C   0  0  0  0  0  0  0  0  0  0  0  0
  -11.3313  -27.2165    8.0019 C   0  0  0  0  0  0  0  0  0  0  0  0
  -11.4680  -27.0347    9.3734 C   0  0  0  0  0  0  0  0  0  0  0  0
  -12.1623  -25.9286    9.8376 C   0  0  0  0  0  0  0  0  0  0  0  0
  -12.2960  -25.6156   11.6871 Br  0  0  0  0  0  0  0  0  0  0  0  0
  -12.7293  -25.0678    8.9113 C   0  0  0  0  0  0  0  0  0  0  0  0
  -12.6205  -25.2286    7.5698 N   0  0  0  0  0  0  0  0  0  0  0  0
   -9.5186  -24.5826    5.3858 C   0  0  0  0  0  0  0  0  0  0  0  0
   -8.5290  -23.9118    4.8284 N   0  0  0  0  0  0  0  0  0  0  0  0
   -8.9034  -22.6239    5.0149 C   0  0  0  0  0  0  0  0  0  0  0  0
   -8.3268  -21.4502    4.5502 C   0  0  0  0  0  0  0  0  0  0  0  0
   -8.9897  -20.2663    4.8296 C   0  0  0  0  0  0  0  0  0  0  0  0
  -10.1820  -20.2776    5.5422 C   0  0  0  0  0  0  0  0  0  0  0  0
  -10.7473  -21.4270    6.0843 C   0  0  0  0  0  0  0  0  0  0  0  0
  -10.0702  -22.5708    5.7480 C   0  0  0  0  0  0  0  0  0  0  0  0
  -10.4453  -23.8280    6.0274 O   0  0  0  0  0  0  0  0  0  0  0  0
   -9.3775  -27.7495    4.0532 H   0  0  0  0  0  0  0  0  0  0  0  0
   -8.1225  -26.5130    4.0200 H   0  0  0  0  0  0  0  0  0  0  0  0
   -9.6404  -26.2304    3.1664 H   0  0  0  0  0  0  0  0  0  0  0  0
   -9.2891  -26.5070    6.2018 H   0  0  0  0  0  0  0  0  0  0  0  0
  -10.7748  -28.0683    7.6246 H   0  0  0  0  0  0  0  0  0  0  0  0
  -11.0167  -27.7443   10.0608 H   0  0  0  0  0  0  0  0  0  0  0  0
  -13.2980  -24.1960    9.2176 H   0  0  0  0  0  0  0  0  0  0  0  0
   -7.4262  -21.4775    3.9489 H   0  0  0  0  0  0  0  0  0  0  0  0
   -8.6221  -19.3298    4.4228 H   0  0  0  0  0  0  0  0  0  0  0  0
  -10.7137  -19.3399    5.5412 H   0  0  0  0  0  0  0  0  0  0  0  0
  -11.6844  -21.4589    6.6113 H   0  0  0  0  0  0  0  0  0  0  0  0
  1  2  1  0
  2  3  1  0
  3  4  1  0
  4  5  2  0
  5  6  1  0
  6  7  2  0
  7  8  1  0
  7  9  1  0
  9 10  2  0
  2 11  1  0
 11 12  2  0
 12 13  1  0
 13 14  2  0
 14 15  1  0
 15 16  2  0
 16 17  1  0
 17 18  2  0
 18 19  1  0
 10  4  1  0
 19 11  1  0
 18 13  1  0
  1 20  1  0
  1 21  1  0
  1 22  1  0
  2 23  1  0
  5 24  1  0
  6 25  1  0
  9 26  1  0
 14 27  1  0
 15 28  1  0
 16 29  1  0
 17 30  1  0
M  END
>  <Energy>  (1155) 
51.245071052857739

>  <compound_id>  (1155) 
28069

>  <target_id>  (1155) 
1

>  <reference_id>  (1155) 
48

>  <inspiration_ids>  (1155) 
[48, 2]

>  <energy_score>  (1155) 
-17.232109571246674

>  <distance_score>  (1155) 
3.0080295130533585

>  <path>  (1155) 
/opt/xchem-fragalysis-2/maxwin/BulkDock/SCRATCH/511017/C28069-P48/C28069-P48.minimised.mol

>  <scratch_subdir>  (1155) 
/opt/xchem-fragalysis-2/maxwin/BulkDock/SCRATCH/511017/C28069-P48

>  <fragmenstein_runtime>  (1155) 
1.6513423919677734

>  <fragmenstein_outcome>  (1155) 
too moved

>  <fragmenstein_mode>  (1155) 
expansion

>  <fragmenstein_error>  (1155) 


$$$$
C28069-P2
     RDKit          3D

 30 32  0  0  0  0  0  0  0  0999 V2000
   -9.9840  -22.8653    3.8257 C   0  0  0  0  0  0  0  0  0  0  0  0
  -10.1633  -23.7655    5.0437 C   0  0  0  0  0  0  0  0  0  0  0  0
  -11.9446  -24.2861    5.1456 S   0  0  0  0  0  0  0  0  0  0  0  0
  -12.0232  -24.9807    6.7876 C   0  0  0  0  0  0  0  0  0  0  0  0
  -11.5192  -26.2493    7.0637 C   0  0  0  0  0  0  0  0  0  0  0  0
  -11.5096  -26.7022    8.3864 C   0  0  0  0  0  0  0  0  0  0  0  0
  -12.0148  -25.8807    9.3840 C   0  0  0  0  0  0  0  0  0  0  0  0
  -11.9587  -26.3955   11.1951 Br  0  0  0  0  0  0  0  0  0  0  0  0
  -12.5445  -24.6574    9.0141 C   0  0  0  0  0  0  0  0  0  0  0  0
  -12.5637  -24.1906    7.7429 N   0  0  0  0  0  0  0  0  0  0  0  0
   -9.7071  -23.0951    6.2938 C   0  0  0  0  0  0  0  0  0  0  0  0
   -9.7680  -21.8249    6.6488 N   0  0  0  0  0  0  0  0  0  0  0  0
   -9.3673  -21.8461    7.9593 C   0  0  0  0  0  0  0  0  0  0  0  0
   -9.2386  -20.8200    8.8934 C   0  0  0  0  0  0  0  0  0  0  0  0
   -8.7674  -21.1528   10.1736 C   0  0  0  0  0  0  0  0  0  0  0  0
   -8.4712  -22.4749   10.5228 C   0  0  0  0  0  0  0  0  0  0  0  0
   -8.6002  -23.5135    9.5987 C   0  0  0  0  0  0  0  0  0  0  0  0
   -9.0329  -23.1347    8.3364 C   0  0  0  0  0  0  0  0  0  0  0  0
   -9.1990  -23.9373    7.2520 O   0  0  0  0  0  0  0  0  0  0  0  0
  -10.2685  -23.3825    2.9025 H   0  0  0  0  0  0  0  0  0  0  0  0
   -8.9350  -22.5638    3.7212 H   0  0  0  0  0  0  0  0  0  0  0  0
  -10.5782  -21.9469    3.9015 H   0  0  0  0  0  0  0  0  0  0  0  0
   -9.5748  -24.6777    4.8901 H   0  0  0  0  0  0  0  0  0  0  0  0
  -11.1082  -26.8692    6.2738 H   0  0  0  0  0  0  0  0  0  0  0  0
  -11.0926  -27.6772    8.6213 H   0  0  0  0  0  0  0  0  0  0  0  0
  -12.9770  -23.9882    9.7464 H   0  0  0  0  0  0  0  0  0  0  0  0
   -9.4729  -19.8043    8.6058 H   0  0  0  0  0  0  0  0  0  0  0  0
   -8.6020  -20.3719   10.9115 H   0  0  0  0  0  0  0  0  0  0  0  0
   -8.0816  -22.6837   11.5177 H   0  0  0  0  0  0  0  0  0  0  0  0
   -8.3451  -24.5366    9.8385 H   0  0  0  0  0  0  0  0  0  0  0  0
  1  2  1  0
  2  3  1  0
  3  4  1  0
  4  5  2  0
  5  6  1  0
  6  7  2  0
  7  8  1  0
  7  9  1  0
  9 10  2  0
  2 11  1  0
 11 12  2  0
 12 13  1  0
 13 14  2  0
 14 15  1  0
 15 16  2  0
 16 17  1  0
 17 18  2  0
 18 19  1  0
 10  4  1  0
 19 11  1  0
 18 13  1  0
  1 20  1  0
  1 21  1  0
  1 22  1  0
  2 23  1  0
  5 24  1  0
  6 25  1  0
  9 26  1  0
 14 27  1  0
 15 28  1  0
 16 29  1  0
 17 30  1  0
M  END
>  <Energy>  (1156) 
44.406215600331819

>  <compound_id>  (1156) 
28069

>  <target_id>  (1156) 
1

>  <reference_id>  (1156) 
2

>  <inspiration_ids>  (1156) 
[48, 2]

>  <energy_score>  (1156) 
-24.07096502377143

>  <distance_score>  (1156) 
0.6696860129094753

>  <path>  (1156) 
/opt/xchem-fragalysis-2/maxwin/BulkDock/SCRATCH/511017/C28069-P2/C28069-P2.minimised.mol

>  <scratch_subdir>  (1156) 
/opt/xchem-fragalysis-2/maxwin/BulkDock/SCRATCH/511017/C28069-P2

>  <fragmenstein_runtime>  (1156) 
0.9908359050750732

>  <fragmenstein_outcome>  (1156) 
acceptable

>  <fragmenstein_mode>  (1156) 
expansion

>  <fragmenstein_error>  (1156) 


$$$$
C28070-P48
     RDKit          3D

 39 41  0  0  0  0  0  0  0  0999 V2000
  -16.7676  -22.1507    6.8835 C   0  0  0  0  0  0  0  0  0  0  0  0
  -15.8130  -23.2592    6.4752 C   0  0  0  0  0  0  0  0  0  0  0  0
  -16.1106  -24.7328    7.5057 S   0  0  0  0  0  0  0  0  0  0  0  0
  -14.6897  -25.7390    7.1279 C   0  0  0  0  0  0  0  0  0  0  0  0
  -14.1291  -25.8105    5.8660 C   0  0  0  0  0  0  0  0  0  0  0  0
  -13.0109  -26.6164    5.6616 C   0  0  0  0  0  0  0  0  0  0  0  0
  -12.3525  -26.5006    4.3306 C   0  0  0  0  0  0  0  0  0  0  0  0
  -12.9509  -26.2186    3.3048 O   0  0  0  0  0  0  0  0  0  0  0  0
  -11.0073  -26.6478    4.4098 O   0  0  0  0  0  0  0  0  0  0  0  0
  -10.3018  -25.3948    4.1894 C   0  0  0  0  0  0  0  0  0  0  0  0
   -8.9081  -25.7069    3.6710 C   0  0  0  0  0  0  0  0  0  0  0  0
  -10.2854  -24.7320    5.5379 C   0  0  0  0  0  0  0  0  0  0  0  0
  -11.2014  -23.8960    6.0044 N   0  0  0  0  0  0  0  0  0  0  0  0
  -11.2952  -24.2652    7.3265 C   0  0  0  0  0  0  0  0  0  0  0  0
  -12.1770  -23.8721    8.3508 C   0  0  0  0  0  0  0  0  0  0  0  0
  -12.0442  -24.4831    9.6225 C   0  0  0  0  0  0  0  0  0  0  0  0
  -11.0416  -25.4375    9.8811 C   0  0  0  0  0  0  0  0  0  0  0  0
  -10.1399  -25.8249    8.8755 C   0  0  0  0  0  0  0  0  0  0  0  0
  -10.3220  -25.2181    7.6271 C   0  0  0  0  0  0  0  0  0  0  0  0
   -9.6089  -25.4479    6.4953 O   0  0  0  0  0  0  0  0  0  0  0  0
  -12.5121  -27.3695    6.7222 C   0  0  0  0  0  0  0  0  0  0  0  0
  -13.1503  -27.2562    7.9444 C   0  0  0  0  0  0  0  0  0  0  0  0
  -14.2109  -26.4534    8.1668 N   0  0  0  0  0  0  0  0  0  0  0  0
  -17.8124  -22.4452    6.7370 H   0  0  0  0  0  0  0  0  0  0  0  0
  -16.6293  -21.8670    7.9323 H   0  0  0  0  0  0  0  0  0  0  0  0
  -16.5867  -21.2600    6.2725 H   0  0  0  0  0  0  0  0  0  0  0  0
  -15.9758  -23.5070    5.4222 H   0  0  0  0  0  0  0  0  0  0  0  0
  -14.7818  -22.9161    6.5993 H   0  0  0  0  0  0  0  0  0  0  0  0
  -14.5286  -25.2304    5.0412 H   0  0  0  0  0  0  0  0  0  0  0  0
  -10.8333  -24.7675    3.4633 H   0  0  0  0  0  0  0  0  0  0  0  0
   -8.9711  -26.2030    2.6964 H   0  0  0  0  0  0  0  0  0  0  0  0
   -8.3096  -24.7968    3.5622 H   0  0  0  0  0  0  0  0  0  0  0  0
   -8.3736  -26.3953    4.3356 H   0  0  0  0  0  0  0  0  0  0  0  0
  -12.9544  -23.1473    8.1550 H   0  0  0  0  0  0  0  0  0  0  0  0
  -12.7517  -24.2319   10.4106 H   0  0  0  0  0  0  0  0  0  0  0  0
  -10.9712  -25.8869   10.8696 H   0  0  0  0  0  0  0  0  0  0  0  0
   -9.3544  -26.5503    9.0419 H   0  0  0  0  0  0  0  0  0  0  0  0
  -11.6387  -28.0016    6.6085 H   0  0  0  0  0  0  0  0  0  0  0  0
  -12.8068  -27.8173    8.8089 H   0  0  0  0  0  0  0  0  0  0  0  0
  1  2  1  0
  2  3  1  0
  3  4  1  0
  4  5  2  0
  5  6  1  0
  6  7  1  0
  7  8  2  0
  7  9  1  0
  9 10  1  0
 10 11  1  0
 10 12  1  0
 12 13  2  0
 13 14  1  0
 14 15  2  0
 15 16  1  0
 16 17  2  0
 17 18  1  0
 18 19  2  0
 19 20  1  0
  6 21  2  0
 21 22  1  0
 22 23  2  0
 23  4  1  0
 20 12  1  0
 19 14  1  0
  1 24  1  0
  1 25  1  0
  1 26  1  0
  2 27  1  0
  2 28  1  0
  5 29  1  0
 10 30  1  0
 11 31  1  0
 11 32  1  0
 11 33  1  0
 15 34  1  0
 16 35  1  0
 17 36  1  0
 18 37  1  0
 21 38  1  0
 22 39  1  0
M  END
>  <Energy>  (1157) 
41.758662212439063

>  <compound_id>  (1157) 
28070

>  <target_id>  (1157) 
1

>  <reference_id>  (1157) 
48

>  <inspiration_ids>  (1157) 
[48, 2]

>  <energy_score>  (1157) 
-11.493343047731216

>  <distance_score>  (1157) 
3.488451539180163

>  <path>  (1157) 
/opt/xchem-fragalysis-2/maxwin/BulkDock/SCRATCH/511017/C28070-P48/C28070-P48.minimised.mol

>  <scratch_subdir>  (1157) 
/opt/xchem-fragalysis-2/maxwin/BulkDock/SCRATCH/511017/C28070-P48

>  <fragmenstein_runtime>  (1157) 
1.5217399597167969

>  <fragmenstein_outcome>  (1157) 
too moved

>  <fragmenstein_mode>  (1157) 
expansion

>  <fragmenstein_error>  (1157) 


$$$$
C28070-P2
     RDKit          3D

 39 41  0  0  0  0  0  0  0  0999 V2000
  -12.9500  -30.8495    9.4665 C   0  0  0  0  0  0  0  0  0  0  0  0
  -12.9542  -29.3305    9.4654 C   0  0  0  0  0  0  0  0  0  0  0  0
  -12.6605  -28.7148    7.7757 S   0  0  0  0  0  0  0  0  0  0  0  0
  -12.7246  -26.9519    8.0497 C   0  0  0  0  0  0  0  0  0  0  0  0
  -12.5645  -26.1111    6.9688 C   0  0  0  0  0  0  0  0  0  0  0  0
  -12.6216  -24.7437    7.2099 C   0  0  0  0  0  0  0  0  0  0  0  0
  -12.3869  -23.7564    6.1421 C   0  0  0  0  0  0  0  0  0  0  0  0
  -12.8943  -22.6489    6.1252 O   0  0  0  0  0  0  0  0  0  0  0  0
  -11.4683  -24.2469    5.2721 O   0  0  0  0  0  0  0  0  0  0  0  0
  -10.5357  -23.2450    4.8114 C   0  0  0  0  0  0  0  0  0  0  0  0
   -9.5883  -23.8975    3.8176 C   0  0  0  0  0  0  0  0  0  0  0  0
   -9.8013  -22.7481    6.0236 C   0  0  0  0  0  0  0  0  0  0  0  0
   -9.7446  -21.5147    6.4858 N   0  0  0  0  0  0  0  0  0  0  0  0
   -9.3590  -21.6828    7.7873 C   0  0  0  0  0  0  0  0  0  0  0  0
   -9.1880  -20.7520    8.8083 C   0  0  0  0  0  0  0  0  0  0  0  0
   -8.7539  -21.2134   10.0594 C   0  0  0  0  0  0  0  0  0  0  0  0
   -8.5362  -22.5762   10.2927 C   0  0  0  0  0  0  0  0  0  0  0  0
   -8.7191  -23.5258    9.2814 C   0  0  0  0  0  0  0  0  0  0  0  0
   -9.1192  -23.0188    8.0523 C   0  0  0  0  0  0  0  0  0  0  0  0
   -9.3640  -23.7124    6.9056 O   0  0  0  0  0  0  0  0  0  0  0  0
  -12.8160  -24.2583    8.5037 C   0  0  0  0  0  0  0  0  0  0  0  0
  -12.9558  -25.1718    9.5174 C   0  0  0  0  0  0  0  0  0  0  0  0
  -12.9181  -26.4993    9.3099 N   0  0  0  0  0  0  0  0  0  0  0  0
  -13.7395  -31.2547    8.8244 H   0  0  0  0  0  0  0  0  0  0  0  0
  -11.9872  -31.2496    9.1308 H   0  0  0  0  0  0  0  0  0  0  0  0
  -13.1265  -31.2211   10.4814 H   0  0  0  0  0  0  0  0  0  0  0  0
  -13.9222  -28.9685    9.8266 H   0  0  0  0  0  0  0  0  0  0  0  0
  -12.1683  -28.9636   10.1334 H   0  0  0  0  0  0  0  0  0  0  0  0
  -12.3988  -26.5033    5.9717 H   0  0  0  0  0  0  0  0  0  0  0  0
  -11.0792  -22.4305    4.3183 H   0  0  0  0  0  0  0  0  0  0  0  0
   -9.0704  -24.7551    4.2626 H   0  0  0  0  0  0  0  0  0  0  0  0
  -10.1464  -24.2812    2.9567 H   0  0  0  0  0  0  0  0  0  0  0  0
   -8.8349  -23.1888    3.4589 H   0  0  0  0  0  0  0  0  0  0  0  0
   -9.3639  -19.7083    8.5938 H   0  0  0  0  0  0  0  0  0  0  0  0
   -8.5491  -20.5034   10.8580 H   0  0  0  0  0  0  0  0  0  0  0  0
   -8.1719  -22.8920   11.2692 H   0  0  0  0  0  0  0  0  0  0  0  0
   -8.5373  -24.5809    9.4379 H   0  0  0  0  0  0  0  0  0  0  0  0
  -12.8414  -23.1935    8.7062 H   0  0  0  0  0  0  0  0  0  0  0  0
  -13.1042  -24.8637   10.5476 H   0  0  0  0  0  0  0  0  0  0  0  0
  1  2  1  0
  2  3  1  0
  3  4  1  0
  4  5  2  0
  5  6  1  0
  6  7  1  0
  7  8  2  0
  7  9  1  0
  9 10  1  0
 10 11  1  0
 10 12  1  0
 12 13  2  0
 13 14  1  0
 14 15  2  0
 15 16  1  0
 16 17  2  0
 17 18  1  0
 18 19  2  0
 19 20  1  0
  6 21  2  0
 21 22  1  0
 22 23  2  0
 23  4  1  0
 20 12  1  0
 19 14  1  0
  1 24  1  0
  1 25  1  0
  1 26  1  0
  2 27  1  0
  2 28  1  0
  5 29  1  0
 10 30  1  0
 11 31  1  0
 11 32  1  0
 11 33  1  0
 15 34  1  0
 16 35  1  0
 17 36  1  0
 18 37  1  0
 21 38  1  0
 22 39  1  0
M  END
>  <Energy>  (1158) 
22.522715375985609

>  <compound_id>  (1158) 
28070

>  <target_id>  (1158) 
1

>  <reference_id>  (1158) 
2

>  <inspiration_ids>  (1158) 
[48, 2]

>  <energy_score>  (1158) 
-30.72928988418372

>  <distance_score>  (1158) 
1.6217501703694992

>  <path>  (1158) 
/opt/xchem-fragalysis-2/maxwin/BulkDock/SCRATCH/511017/C28070-P2/C28070-P2.minimised.mol

>  <scratch_subdir>  (1158) 
/opt/xchem-fragalysis-2/maxwin/BulkDock/SCRATCH/511017/C28070-P2

>  <fragmenstein_runtime>  (1158) 
1.4207932949066162

>  <fragmenstein_outcome>  (1158) 
too moved

>  <fragmenstein_mode>  (1158) 
expansion

>  <fragmenstein_error>  (1158) 


$$$$
C28071-P48
     RDKit          3D

 37 39  0  0  0  0  0  0  0  0999 V2000
  -14.3699  -26.3740   11.9684 C   0  0  0  0  0  0  0  0  0  0  0  0
  -13.6985  -25.0150   11.8693 C   0  0  0  0  0  0  0  0  0  0  0  0
  -12.1800  -25.0869   10.8614 S   0  0  0  0  0  0  0  0  0  0  0  0
  -12.8449  -25.0838    9.2062 C   0  0  0  0  0  0  0  0  0  0  0  0
  -11.9835  -25.2685    8.1472 C   0  0  0  0  0  0  0  0  0  0  0  0
  -12.4938  -25.1842    6.8441 C   0  0  0  0  0  0  0  0  0  0  0  0
  -11.5596  -25.2793    5.6993 C   0  0  0  0  0  0  0  0  0  0  0  0
  -11.7189  -26.0844    4.8770 O   0  0  0  0  0  0  0  0  0  0  0  0
  -10.4249  -24.2732    5.8958 N   0  0  0  0  0  0  0  0  0  0  0  0
   -9.1909  -24.1032    5.1761 C   0  0  0  0  0  0  0  0  0  0  0  0
   -8.2280  -24.6025    6.2080 C   0  0  0  0  0  0  0  0  0  0  0  0
   -8.5818  -25.3764    7.2224 N   0  0  0  0  0  0  0  0  0  0  0  0
   -7.6373  -25.1374    8.1578 C   0  0  0  0  0  0  0  0  0  0  0  0
   -7.6064  -25.4710    9.5160 C   0  0  0  0  0  0  0  0  0  0  0  0
   -6.5107  -25.0537   10.2765 C   0  0  0  0  0  0  0  0  0  0  0  0
   -5.4534  -24.3719    9.6741 C   0  0  0  0  0  0  0  0  0  0  0  0
   -5.4638  -24.0610    8.3045 C   0  0  0  0  0  0  0  0  0  0  0  0
   -6.6091  -24.4050    7.6008 C   0  0  0  0  0  0  0  0  0  0  0  0
   -6.9843  -24.0407    6.3275 O   0  0  0  0  0  0  0  0  0  0  0  0
  -13.8465  -25.0534    6.6278 C   0  0  0  0  0  0  0  0  0  0  0  0
  -14.6311  -24.8895    7.7466 C   0  0  0  0  0  0  0  0  0  0  0  0
  -14.1594  -24.8646    9.0162 N   0  0  0  0  0  0  0  0  0  0  0  0
  -14.7042  -26.7410   10.9932 H   0  0  0  0  0  0  0  0  0  0  0  0
  -15.2520  -26.3049   12.6137 H   0  0  0  0  0  0  0  0  0  0  0  0
  -13.6987  -27.1200   12.4074 H   0  0  0  0  0  0  0  0  0  0  0  0
  -14.3893  -24.2577   11.4868 H   0  0  0  0  0  0  0  0  0  0  0  0
  -13.4028  -24.6928   12.8734 H   0  0  0  0  0  0  0  0  0  0  0  0
  -10.9277  -25.4593    8.3106 H   0  0  0  0  0  0  0  0  0  0  0  0
  -10.5641  -23.7699    6.7736 H   0  0  0  0  0  0  0  0  0  0  0  0
   -9.1852  -24.7220    4.2774 H   0  0  0  0  0  0  0  0  0  0  0  0
   -9.0458  -23.0450    4.9522 H   0  0  0  0  0  0  0  0  0  0  0  0
   -8.4249  -26.0234    9.9621 H   0  0  0  0  0  0  0  0  0  0  0  0
   -6.4677  -25.2858   11.3378 H   0  0  0  0  0  0  0  0  0  0  0  0
   -4.5980  -24.0832   10.2828 H   0  0  0  0  0  0  0  0  0  0  0  0
   -4.6491  -23.5222    7.8376 H   0  0  0  0  0  0  0  0  0  0  0  0
  -14.2683  -25.0443    5.6300 H   0  0  0  0  0  0  0  0  0  0  0  0
  -15.7061  -24.7542    7.6561 H   0  0  0  0  0  0  0  0  0  0  0  0
  1  2  1  0
  2  3  1  0
  3  4  1  0
  4  5  2  0
  5  6  1  0
  6  7  1  0
  7  8  2  0
  7  9  1  0
  9 10  1  0
 10 11  1  0
 11 12  2  0
 12 13  1  0
 13 14  2  0
 14 15  1  0
 15 16  2  0
 16 17  1  0
 17 18  2  0
 18 19  1  0
  6 20  2  0
 20 21  1  0
 21 22  2  0
 22  4  1  0
 19 11  1  0
 18 13  1  0
  1 23  1  0
  1 24  1  0
  1 25  1  0
  2 26  1  0
  2 27  1  0
  5 28  1  0
  9 29  1  0
 10 30  1  0
 10 31  1  0
 14 32  1  0
 15 33  1  0
 16 34  1  0
 17 35  1  0
 20 36  1  0
 21 37  1  0
M  END
>  <Energy>  (1159) 
29.349613666476188

>  <compound_id>  (1159) 
28071

>  <target_id>  (1159) 
1

>  <reference_id>  (1159) 
48

>  <inspiration_ids>  (1159) 
[48, 2]

>  <energy_score>  (1159) 
-13.98207807328081

>  <distance_score>  (1159) 
3.1322701553087646

>  <path>  (1159) 
/opt/xchem-fragalysis-2/maxwin/BulkDock/SCRATCH/511017/C28071-P48/C28071-P48.minimised.mol

>  <scratch_subdir>  (1159) 
/opt/xchem-fragalysis-2/maxwin/BulkDock/SCRATCH/511017/C28071-P48

>  <fragmenstein_runtime>  (1159) 
1.8904244899749756

>  <fragmenstein_outcome>  (1159) 
too moved

>  <fragmenstein_mode>  (1159) 
expansion

>  <fragmenstein_error>  (1159) 


$$$$
C28071-P2
     RDKit          3D

 37 39  0  0  0  0  0  0  0  0999 V2000
  -15.1671  -24.8235   12.1328 C   0  0  0  0  0  0  0  0  0  0  0  0
  -14.2088  -25.9924   11.9908 C   0  0  0  0  0  0  0  0  0  0  0  0
  -12.6124  -25.4634   11.2861 S   0  0  0  0  0  0  0  0  0  0  0  0
  -12.9055  -25.7197    9.5480 C   0  0  0  0  0  0  0  0  0  0  0  0
  -11.8324  -25.9407    8.7134 C   0  0  0  0  0  0  0  0  0  0  0  0
  -12.0935  -26.1200    7.3513 C   0  0  0  0  0  0  0  0  0  0  0  0
  -10.9388  -25.9915    6.4504 C   0  0  0  0  0  0  0  0  0  0  0  0
  -10.1666  -26.8481    6.3222 O   0  0  0  0  0  0  0  0  0  0  0  0
  -10.9497  -24.5713    5.8799 N   0  0  0  0  0  0  0  0  0  0  0  0
   -9.9626  -23.8677    5.1047 C   0  0  0  0  0  0  0  0  0  0  0  0
   -9.3017  -23.0629    6.1817 C   0  0  0  0  0  0  0  0  0  0  0  0
   -9.5472  -21.8126    6.5413 N   0  0  0  0  0  0  0  0  0  0  0  0
   -9.2267  -21.8029    7.8802 C   0  0  0  0  0  0  0  0  0  0  0  0
   -9.2819  -20.7891    8.8365 C   0  0  0  0  0  0  0  0  0  0  0  0
   -8.8707  -21.0989   10.1453 C   0  0  0  0  0  0  0  0  0  0  0  0
   -8.4698  -22.3891   10.5045 C   0  0  0  0  0  0  0  0  0  0  0  0
   -8.4134  -23.4129    9.5601 C   0  0  0  0  0  0  0  0  0  0  0  0
   -8.7705  -23.0501    8.2703 C   0  0  0  0  0  0  0  0  0  0  0  0
   -8.7249  -23.8347    7.1653 O   0  0  0  0  0  0  0  0  0  0  0  0
  -13.3800  -26.1142    6.8504 C   0  0  0  0  0  0  0  0  0  0  0  0
  -14.3813  -25.8742    7.7613 C   0  0  0  0  0  0  0  0  0  0  0  0
  -14.1697  -25.6551    9.0804 N   0  0  0  0  0  0  0  0  0  0  0  0
  -14.7608  -24.0584   12.8026 H   0  0  0  0  0  0  0  0  0  0  0  0
  -16.1118  -25.1689   12.5659 H   0  0  0  0  0  0  0  0  0  0  0  0
  -15.3963  -24.3569   11.1700 H   0  0  0  0  0  0  0  0  0  0  0  0
  -14.0034  -26.4028   12.9853 H   0  0  0  0  0  0  0  0  0  0  0  0
  -14.6529  -26.8005   11.4010 H   0  0  0  0  0  0  0  0  0  0  0  0
  -10.8118  -25.9207    9.0827 H   0  0  0  0  0  0  0  0  0  0  0  0
  -11.8198  -24.1142    6.1271 H   0  0  0  0  0  0  0  0  0  0  0  0
   -9.2698  -24.5744    4.6434 H   0  0  0  0  0  0  0  0  0  0  0  0
  -10.4593  -23.2391    4.3637 H   0  0  0  0  0  0  0  0  0  0  0  0
   -9.6032  -19.7953    8.5549 H   0  0  0  0  0  0  0  0  0  0  0  0
   -8.8504  -20.3243   10.9073 H   0  0  0  0  0  0  0  0  0  0  0  0
   -8.1386  -22.5801   11.5237 H   0  0  0  0  0  0  0  0  0  0  0  0
   -8.0590  -24.4057    9.8028 H   0  0  0  0  0  0  0  0  0  0  0  0
  -13.5898  -26.2283    5.7940 H   0  0  0  0  0  0  0  0  0  0  0  0
  -15.4225  -25.8289    7.4513 H   0  0  0  0  0  0  0  0  0  0  0  0
  1  2  1  0
  2  3  1  0
  3  4  1  0
  4  5  2  0
  5  6  1  0
  6  7  1  0
  7  8  2  0
  7  9  1  0
  9 10  1  0
 10 11  1  0
 11 12  2  0
 12 13  1  0
 13 14  2  0
 14 15  1  0
 15 16  2  0
 16 17  1  0
 17 18  2  0
 18 19  1  0
  6 20  2  0
 20 21  1  0
 21 22  2  0
 22  4  1  0
 19 11  1  0
 18 13  1  0
  1 23  1  0
  1 24  1  0
  1 25  1  0
  2 26  1  0
  2 27  1  0
  5 28  1  0
  9 29  1  0
 10 30  1  0
 10 31  1  0
 14 32  1  0
 15 33  1  0
 16 34  1  0
 17 35  1  0
 20 36  1  0
 21 37  1  0
M  END
>  <Energy>  (1160) 
31.365677358332011

>  <compound_id>  (1160) 
28071

>  <target_id>  (1160) 
1

>  <reference_id>  (1160) 
2

>  <inspiration_ids>  (1160) 
[48, 2]

>  <energy_score>  (1160) 
-11.966014381424301

>  <distance_score>  (1160) 
1.2338485282686613

>  <path>  (1160) 
/opt/xchem-fragalysis-2/maxwin/BulkDock/SCRATCH/511017/C28071-P2/C28071-P2.minimised.mol

>  <scratch_subdir>  (1160) 
/opt/xchem-fragalysis-2/maxwin/BulkDock/SCRATCH/511017/C28071-P2

>  <fragmenstein_runtime>  (1160) 
1.570448637008667

>  <fragmenstein_outcome>  (1160) 
too moved

>  <fragmenstein_mode>  (1160) 
expansion

>  <fragmenstein_error>  (1160) 


$$$$
C28072-P48
     RDKit          3D

 33 36  0  0  0  0  0  0  0  0999 V2000
  -12.7855  -27.6931    8.6196 C   0  0  0  0  0  0  0  0  0  0  0  0
  -13.8844  -26.8521    8.6007 C   0  0  0  0  0  0  0  0  0  0  0  0
  -14.2711  -26.1610    7.5094 N   0  0  0  0  0  0  0  0  0  0  0  0
  -13.5108  -26.3041    6.3885 C   0  0  0  0  0  0  0  0  0  0  0  0
  -12.3752  -27.1101    6.2941 C   0  0  0  0  0  0  0  0  0  0  0  0
  -11.4968  -26.9951    5.1181 C   0  0  0  0  0  0  0  0  0  0  0  0
  -11.5286  -26.0391    4.2029 N   0  0  0  0  0  0  0  0  0  0  0  0
  -10.3263  -26.1535    3.5530 C   0  0  0  0  0  0  0  0  0  0  0  0
   -9.7317  -24.9558    2.4260 S   0  0  0  0  0  0  0  0  0  0  0  0
   -8.5138  -24.0419    3.4662 C   0  0  0  0  0  0  0  0  0  0  0  0
   -9.1222  -23.5453    4.7160 C   0  0  0  0  0  0  0  0  0  0  0  0
   -9.8033  -22.4335    4.9285 N   0  0  0  0  0  0  0  0  0  0  0  0
  -10.5973  -22.7884    5.9864 C   0  0  0  0  0  0  0  0  0  0  0  0
  -11.6839  -22.1433    6.5751 C   0  0  0  0  0  0  0  0  0  0  0  0
  -12.3732  -22.8307    7.5894 C   0  0  0  0  0  0  0  0  0  0  0  0
  -11.9508  -24.0765    8.0578 C   0  0  0  0  0  0  0  0  0  0  0  0
  -10.8632  -24.7351    7.4753 C   0  0  0  0  0  0  0  0  0  0  0  0
  -10.2421  -24.0459    6.4437 C   0  0  0  0  0  0  0  0  0  0  0  0
   -9.1930  -24.4788    5.7097 O   0  0  0  0  0  0  0  0  0  0  0  0
   -9.6107  -27.2254    3.9011 N   0  0  0  0  0  0  0  0  0  0  0  0
  -10.3788  -27.7511    4.8746 N   0  0  0  0  0  0  0  0  0  0  0  0
  -12.0352  -27.8374    7.4470 C   0  0  0  0  0  0  0  0  0  0  0  0
  -12.5165  -28.2276    9.5242 H   0  0  0  0  0  0  0  0  0  0  0  0
  -14.5037  -26.7135    9.4821 H   0  0  0  0  0  0  0  0  0  0  0  0
  -13.8212  -25.6797    5.5521 H   0  0  0  0  0  0  0  0  0  0  0  0
   -8.1347  -23.2021    2.8758 H   0  0  0  0  0  0  0  0  0  0  0  0
   -7.6679  -24.7035    3.6798 H   0  0  0  0  0  0  0  0  0  0  0  0
  -12.0195  -21.2016    6.1667 H   0  0  0  0  0  0  0  0  0  0  0  0
  -13.3012  -22.4488    7.9995 H   0  0  0  0  0  0  0  0  0  0  0  0
  -12.4842  -24.5383    8.8816 H   0  0  0  0  0  0  0  0  0  0  0  0
  -10.4700  -25.6682    7.8444 H   0  0  0  0  0  0  0  0  0  0  0  0
  -10.0483  -28.5699    5.3690 H   0  0  0  0  0  0  0  0  0  0  0  0
  -11.1521  -28.4685    7.4778 H   0  0  0  0  0  0  0  0  0  0  0  0
  1  2  2  0
  2  3  1  0
  3  4  2  0
  4  5  1  0
  5  6  1  0
  6  7  2  0
  7  8  1  0
  8  9  1  0
  9 10  1  0
 10 11  1  0
 11 12  2  0
 12 13  1  0
 13 14  2  0
 14 15  1  0
 15 16  2  0
 16 17  1  0
 17 18  2  0
 18 19  1  0
  8 20  2  0
 20 21  1  0
  5 22  2  0
 22  1  1  0
 21  6  1  0
 19 11  1  0
 18 13  1  0
  1 23  1  0
  2 24  1  0
  4 25  1  0
 10 26  1  0
 10 27  1  0
 14 28  1  0
 15 29  1  0
 16 30  1  0
 17 31  1  0
 21 32  1  0
 22 33  1  0
M  END
>  <Energy>  (1161) 
49.839245121077603

>  <compound_id>  (1161) 
28072

>  <target_id>  (1161) 
1

>  <reference_id>  (1161) 
48

>  <inspiration_ids>  (1161) 
[48, 2]

>  <energy_score>  (1161) 
-17.69175812073822

>  <distance_score>  (1161) 
2.840474211373168

>  <path>  (1161) 
/opt/xchem-fragalysis-2/maxwin/BulkDock/SCRATCH/511017/C28072-P48/C28072-P48.minimised.mol

>  <scratch_subdir>  (1161) 
/opt/xchem-fragalysis-2/maxwin/BulkDock/SCRATCH/511017/C28072-P48

>  <fragmenstein_runtime>  (1161) 
0.9716575145721436

>  <fragmenstein_outcome>  (1161) 
too moved

>  <fragmenstein_mode>  (1161) 
expansion

>  <fragmenstein_error>  (1161) 


$$$$
C28072-P2
     RDKit          3D

 33 36  0  0  0  0  0  0  0  0999 V2000
  -11.7001  -26.2722    9.5431 C   0  0  0  0  0  0  0  0  0  0  0  0
  -12.7452  -25.5826   10.1335 C   0  0  0  0  0  0  0  0  0  0  0  0
  -13.6484  -24.8554    9.4443 N   0  0  0  0  0  0  0  0  0  0  0  0
  -13.4882  -24.8081    8.1042 C   0  0  0  0  0  0  0  0  0  0  0  0
  -12.4720  -25.4549    7.4096 C   0  0  0  0  0  0  0  0  0  0  0  0
  -12.2705  -25.1874    5.9977 C   0  0  0  0  0  0  0  0  0  0  0  0
  -11.1173  -24.9205    5.4252 N   0  0  0  0  0  0  0  0  0  0  0  0
  -11.4771  -24.2923    4.2720 C   0  0  0  0  0  0  0  0  0  0  0  0
  -10.3872  -23.2975    3.3582 S   0  0  0  0  0  0  0  0  0  0  0  0
   -8.9275  -23.3276    4.4271 C   0  0  0  0  0  0  0  0  0  0  0  0
   -9.1235  -22.8431    5.8244 C   0  0  0  0  0  0  0  0  0  0  0  0
   -9.3965  -21.6286    6.2708 N   0  0  0  0  0  0  0  0  0  0  0  0
   -9.2703  -21.7500    7.6349 C   0  0  0  0  0  0  0  0  0  0  0  0
   -9.3085  -20.7912    8.6505 C   0  0  0  0  0  0  0  0  0  0  0  0
   -8.9742  -21.2001    9.9528 C   0  0  0  0  0  0  0  0  0  0  0  0
   -8.7008  -22.5387   10.2525 C   0  0  0  0  0  0  0  0  0  0  0  0
   -8.7055  -23.5166    9.2548 C   0  0  0  0  0  0  0  0  0  0  0  0
   -8.9586  -23.0569    7.9686 C   0  0  0  0  0  0  0  0  0  0  0  0
   -8.8590  -23.7649    6.8109 O   0  0  0  0  0  0  0  0  0  0  0  0
  -12.7758  -24.3724    3.9751 N   0  0  0  0  0  0  0  0  0  0  0  0
  -13.2596  -24.9726    5.0741 N   0  0  0  0  0  0  0  0  0  0  0  0
  -11.5608  -26.2012    8.1587 C   0  0  0  0  0  0  0  0  0  0  0  0
  -10.9961  -26.8343   10.1464 H   0  0  0  0  0  0  0  0  0  0  0  0
  -12.8872  -25.5998   11.2108 H   0  0  0  0  0  0  0  0  0  0  0  0
  -14.2060  -24.1628    7.6042 H   0  0  0  0  0  0  0  0  0  0  0  0
   -8.1655  -22.6986    3.9539 H   0  0  0  0  0  0  0  0  0  0  0  0
   -8.5240  -24.3467    4.4334 H   0  0  0  0  0  0  0  0  0  0  0  0
   -9.5049  -19.7544    8.4084 H   0  0  0  0  0  0  0  0  0  0  0  0
   -8.9050  -20.4630   10.7501 H   0  0  0  0  0  0  0  0  0  0  0  0
   -8.4298  -22.8092   11.2714 H   0  0  0  0  0  0  0  0  0  0  0  0
   -8.4458  -24.5473    9.4542 H   0  0  0  0  0  0  0  0  0  0  0  0
  -14.2593  -25.1144    5.1616 H   0  0  0  0  0  0  0  0  0  0  0  0
  -10.7187  -26.6873    7.6710 H   0  0  0  0  0  0  0  0  0  0  0  0
  1  2  2  0
  2  3  1  0
  3  4  2  0
  4  5  1  0
  5  6  1  0
  6  7  2  0
  7  8  1  0
  8  9  1  0
  9 10  1  0
 10 11  1  0
 11 12  2  0
 12 13  1  0
 13 14  2  0
 14 15  1  0
 15 16  2  0
 16 17  1  0
 17 18  2  0
 18 19  1  0
  8 20  2  0
 20 21  1  0
  5 22  2  0
 22  1  1  0
 21  6  1  0
 19 11  1  0
 18 13  1  0
  1 23  1  0
  2 24  1  0
  4 25  1  0
 10 26  1  0
 10 27  1  0
 14 28  1  0
 15 29  1  0
 16 30  1  0
 17 31  1  0
 21 32  1  0
 22 33  1  0
M  END
>  <Energy>  (1162) 
38.401759023448051

>  <compound_id>  (1162) 
28072

>  <target_id>  (1162) 
1

>  <reference_id>  (1162) 
2

>  <inspiration_ids>  (1162) 
[48, 2]

>  <energy_score>  (1162) 
-29.12924421836729

>  <distance_score>  (1162) 
0.8934800031323105

>  <path>  (1162) 
/opt/xchem-fragalysis-2/maxwin/BulkDock/SCRATCH/511017/C28072-P2/C28072-P2.minimised.mol

>  <scratch_subdir>  (1162) 
/opt/xchem-fragalysis-2/maxwin/BulkDock/SCRATCH/511017/C28072-P2

>  <fragmenstein_runtime>  (1162) 
0.8919064998626709

>  <fragmenstein_outcome>  (1162) 
acceptable

>  <fragmenstein_mode>  (1162) 
expansion

>  <fragmenstein_error>  (1162) 


$$$$
C28073-P48
     RDKit          3D

 36 39  0  0  0  0  0  0  0  0999 V2000
  -12.2978  -21.3687    4.3870 C   0  0  0  0  0  0  0  0  0  0  0  0
  -11.6558  -22.4318    5.2849 C   0  0  0  0  0  0  0  0  0  0  0  0
  -10.1782  -23.0880    4.3967 S   0  0  0  0  0  0  0  0  0  0  0  0
   -9.9965  -24.5316    5.3413 C   0  0  0  0  0  0  0  0  0  0  0  0
   -8.8363  -24.9146    5.8716 N   0  0  0  0  0  0  0  0  0  0  0  0
   -9.2752  -25.6007    6.9459 N   0  0  0  0  0  0  0  0  0  0  0  0
  -10.6464  -25.6718    6.9641 C   0  0  0  0  0  0  0  0  0  0  0  0
  -11.4874  -25.9421    8.1173 C   0  0  0  0  0  0  0  0  0  0  0  0
  -11.0408  -26.5536    9.2852 C   0  0  0  0  0  0  0  0  0  0  0  0
  -11.8666  -26.5614   10.4080 C   0  0  0  0  0  0  0  0  0  0  0  0
  -13.1137  -25.9614   10.3233 C   0  0  0  0  0  0  0  0  0  0  0  0
  -13.5937  -25.3876    9.2056 N   0  0  0  0  0  0  0  0  0  0  0  0
  -12.7773  -25.4055    8.1286 C   0  0  0  0  0  0  0  0  0  0  0  0
  -11.0915  -25.1648    5.8354 N   0  0  0  0  0  0  0  0  0  0  0  0
  -11.3250  -21.8318    6.6262 C   0  0  0  0  0  0  0  0  0  0  0  0
  -10.6058  -20.7455    6.8133 N   0  0  0  0  0  0  0  0  0  0  0  0
  -10.4658  -20.6879    8.1677 C   0  0  0  0  0  0  0  0  0  0  0  0
   -9.4664  -20.0594    8.9303 C   0  0  0  0  0  0  0  0  0  0  0  0
   -9.0496  -20.4586   10.4525 C   0  0  0  0  0  0  0  0  0  0  0  0
   -9.7265  -21.4825   11.1979 C   0  0  0  0  0  0  0  0  0  0  0  0
  -10.6987  -22.1915   10.4170 C   0  0  0  0  0  0  0  0  0  0  0  0
  -11.1521  -21.6965    8.8377 C   0  0  0  0  0  0  0  0  0  0  0  0
  -11.8402  -22.3903    7.8144 O   0  0  0  0  0  0  0  0  0  0  0  0
  -12.6014  -21.7917    3.4227 H   0  0  0  0  0  0  0  0  0  0  0  0
  -13.1991  -20.9607    4.8601 H   0  0  0  0  0  0  0  0  0  0  0  0
  -11.6243  -20.5243    4.1963 H   0  0  0  0  0  0  0  0  0  0  0  0
  -12.4048  -23.2197    5.4132 H   0  0  0  0  0  0  0  0  0  0  0  0
   -8.6147  -25.8341    7.6762 H   0  0  0  0  0  0  0  0  0  0  0  0
  -10.0518  -26.9960    9.3528 H   0  0  0  0  0  0  0  0  0  0  0  0
  -11.5419  -27.0204   11.3359 H   0  0  0  0  0  0  0  0  0  0  0  0
  -13.7838  -25.9415   11.1786 H   0  0  0  0  0  0  0  0  0  0  0  0
  -13.1867  -24.9072    7.2527 H   0  0  0  0  0  0  0  0  0  0  0  0
   -8.8386  -19.4286    8.3072 H   0  0  0  0  0  0  0  0  0  0  0  0
   -8.1369  -20.0637   10.8861 H   0  0  0  0  0  0  0  0  0  0  0  0
   -9.4584  -21.7661   12.2058 H   0  0  0  0  0  0  0  0  0  0  0  0
  -11.1967  -23.0891   10.8052 H   0  0  0  0  0  0  0  0  0  0  0  0
  1  2  1  0
  2  3  1  0
  3  4  1  0
  4  5  2  0
  5  6  1  0
  6  7  1  0
  7  8  1  0
  8  9  2  0
  9 10  1  0
 10 11  2  0
 11 12  1  0
 12 13  2  0
  7 14  2  0
  2 15  1  0
 15 16  2  0
 16 17  1  0
 17 18  2  0
 18 19  1  0
 19 20  2  0
 20 21  1  0
 21 22  2  0
 22 23  1  0
 14  4  1  0
 23 15  1  0
 13  8  1  0
 22 17  1  0
  1 24  1  0
  1 25  1  0
  1 26  1  0
  2 27  1  0
  6 28  1  0
  9 29  1  0
 10 30  1  0
 11 31  1  0
 13 32  1  0
 18 33  1  0
 19 34  1  0
 20 35  1  0
 21 36  1  0
M  END
>  <Energy>  (1163) 
102.82541364004661

>  <compound_id>  (1163) 
28073

>  <target_id>  (1163) 
1

>  <reference_id>  (1163) 
48

>  <inspiration_ids>  (1163) 
[48, 2]

>  <energy_score>  (1163) 
34.24636546891445

>  <distance_score>  (1163) 
1.769876175791645

>  <path>  (1163) 
/opt/xchem-fragalysis-2/maxwin/BulkDock/SCRATCH/511017/C28073-P48/C28073-P48.minimised.mol

>  <scratch_subdir>  (1163) 
/opt/xchem-fragalysis-2/maxwin/BulkDock/SCRATCH/511017/C28073-P48

>  <fragmenstein_runtime>  (1163) 
0.8383257389068604

>  <fragmenstein_outcome>  (1163) 
too moved

>  <fragmenstein_mode>  (1163) 
expansion

>  <fragmenstein_error>  (1163) 


$$$$
C28073-P2
     RDKit          3D

 36 39  0  0  0  0  0  0  0  0999 V2000
   -8.5897  -22.1030    3.5322 C   0  0  0  0  0  0  0  0  0  0  0  0
   -9.3337  -23.1325    4.3890 C   0  0  0  0  0  0  0  0  0  0  0  0
   -8.6794  -24.7842    3.9372 S   0  0  0  0  0  0  0  0  0  0  0  0
   -9.7014  -25.7975    4.9113 C   0  0  0  0  0  0  0  0  0  0  0  0
   -9.3479  -27.0349    5.2649 N   0  0  0  0  0  0  0  0  0  0  0  0
  -10.2337  -27.2891    6.2435 N   0  0  0  0  0  0  0  0  0  0  0  0
  -11.0446  -26.2110    6.4767 C   0  0  0  0  0  0  0  0  0  0  0  0
  -11.8826  -25.9892    7.6441 C   0  0  0  0  0  0  0  0  0  0  0  0
  -11.8428  -26.7875    8.7890 C   0  0  0  0  0  0  0  0  0  0  0  0
  -12.5635  -26.4040    9.9194 C   0  0  0  0  0  0  0  0  0  0  0  0
  -13.3111  -25.2388    9.8665 C   0  0  0  0  0  0  0  0  0  0  0  0
  -13.3885  -24.4477    8.7793 N   0  0  0  0  0  0  0  0  0  0  0  0
  -12.6729  -24.8405    7.6985 C   0  0  0  0  0  0  0  0  0  0  0  0
  -10.8213  -25.3273    5.5255 N   0  0  0  0  0  0  0  0  0  0  0  0
   -9.2451  -22.7414    5.8429 C   0  0  0  0  0  0  0  0  0  0  0  0
   -9.5294  -21.5586    6.3660 N   0  0  0  0  0  0  0  0  0  0  0  0
   -9.3000  -21.7264    7.7068 C   0  0  0  0  0  0  0  0  0  0  0  0
   -9.3287  -20.8129    8.7613 C   0  0  0  0  0  0  0  0  0  0  0  0
   -8.9295  -21.2604   10.0305 C   0  0  0  0  0  0  0  0  0  0  0  0
   -8.5930  -22.5992   10.2575 C   0  0  0  0  0  0  0  0  0  0  0  0
   -8.5930  -23.5333    9.2162 C   0  0  0  0  0  0  0  0  0  0  0  0
   -8.9181  -23.0307    7.9629 C   0  0  0  0  0  0  0  0  0  0  0  0
   -8.8557  -23.6819    6.7684 O   0  0  0  0  0  0  0  0  0  0  0  0
   -8.6875  -22.3213    2.4625 H   0  0  0  0  0  0  0  0  0  0  0  0
   -7.5225  -22.0599    3.7820 H   0  0  0  0  0  0  0  0  0  0  0  0
   -8.9971  -21.0973    3.6911 H   0  0  0  0  0  0  0  0  0  0  0  0
  -10.3911  -23.1044    4.0994 H   0  0  0  0  0  0  0  0  0  0  0  0
  -10.1675  -28.1618    6.7525 H   0  0  0  0  0  0  0  0  0  0  0  0
  -11.2336  -27.6840    8.8425 H   0  0  0  0  0  0  0  0  0  0  0  0
  -12.5389  -26.9986   10.8265 H   0  0  0  0  0  0  0  0  0  0  0  0
  -13.8894  -24.9074   10.7246 H   0  0  0  0  0  0  0  0  0  0  0  0
  -12.7307  -24.1592    6.8513 H   0  0  0  0  0  0  0  0  0  0  0  0
   -9.5905  -19.7807    8.5711 H   0  0  0  0  0  0  0  0  0  0  0  0
   -8.8615  -20.5534   10.8547 H   0  0  0  0  0  0  0  0  0  0  0  0
   -8.2713  -22.9021   11.2523 H   0  0  0  0  0  0  0  0  0  0  0  0
   -8.2835  -24.5593    9.3603 H   0  0  0  0  0  0  0  0  0  0  0  0
  1  2  1  0
  2  3  1  0
  3  4  1  0
  4  5  2  0
  5  6  1  0
  6  7  1  0
  7  8  1  0
  8  9  2  0
  9 10  1  0
 10 11  2  0
 11 12  1  0
 12 13  2  0
  7 14  2  0
  2 15  1  0
 15 16  2  0
 16 17  1  0
 17 18  2  0
 18 19  1  0
 19 20  2  0
 20 21  1  0
 21 22  2  0
 22 23  1  0
 14  4  1  0
 23 15  1  0
 13  8  1  0
 22 17  1  0
  1 24  1  0
  1 25  1  0
  1 26  1  0
  2 27  1  0
  6 28  1  0
  9 29  1  0
 10 30  1  0
 11 31  1  0
 13 32  1  0
 18 33  1  0
 19 34  1  0
 20 35  1  0
 21 36  1  0
M  END
>  <Energy>  (1164) 
40.648757527564499

>  <compound_id>  (1164) 
28073

>  <target_id>  (1164) 
1

>  <reference_id>  (1164) 
2

>  <inspiration_ids>  (1164) 
[48, 2]

>  <energy_score>  (1164) 
-27.930290643566355

>  <distance_score>  (1164) 
0.6478824948920607

>  <path>  (1164) 
/opt/xchem-fragalysis-2/maxwin/BulkDock/SCRATCH/511017/C28073-P2/C28073-P2.minimised.mol

>  <scratch_subdir>  (1164) 
/opt/xchem-fragalysis-2/maxwin/BulkDock/SCRATCH/511017/C28073-P2

>  <fragmenstein_runtime>  (1164) 
1.279536247253418

>  <fragmenstein_outcome>  (1164) 
acceptable

>  <fragmenstein_mode>  (1164) 
expansion

>  <fragmenstein_error>  (1164) 


$$$$
C28074-P48
     RDKit          3D

 36 38  0  0  0  0  0  0  0  0999 V2000
   -9.6962  -22.3523    2.8593 C   0  0  0  0  0  0  0  0  0  0  0  0
  -10.0206  -23.6584    3.5725 C   0  0  0  0  0  0  0  0  0  0  0  0
  -11.3602  -24.2844    3.0452 C   0  0  0  0  0  0  0  0  0  0  0  0
  -12.0573  -25.0665    4.0540 N   0  0  0  0  0  0  0  0  0  0  0  0
  -11.8910  -26.5392    4.4690 C   0  0  0  0  0  0  0  0  0  0  0  0
  -11.2233  -27.3808    4.0168 O   0  0  0  0  0  0  0  0  0  0  0  0
  -12.6983  -26.7978    5.7352 C   0  0  0  0  0  0  0  0  0  0  0  0
  -12.3600  -27.8816    6.5412 C   0  0  0  0  0  0  0  0  0  0  0  0
  -12.9672  -28.0072    7.7900 C   0  0  0  0  0  0  0  0  0  0  0  0
  -13.9046  -27.0616    8.1880 C   0  0  0  0  0  0  0  0  0  0  0  0
  -14.1964  -26.0211    7.3161 C   0  0  0  0  0  0  0  0  0  0  0  0
  -13.6082  -25.8491    6.1069 N   0  0  0  0  0  0  0  0  0  0  0  0
  -10.1261  -23.4724    5.0482 C   0  0  0  0  0  0  0  0  0  0  0  0
  -11.0255  -22.7421    5.6859 N   0  0  0  0  0  0  0  0  0  0  0  0
  -11.2538  -23.4892    6.8153 C   0  0  0  0  0  0  0  0  0  0  0  0
  -12.1930  -23.3459    7.8492 C   0  0  0  0  0  0  0  0  0  0  0  0
  -12.1538  -24.2629    8.9236 C   0  0  0  0  0  0  0  0  0  0  0  0
  -11.2270  -25.3242    8.9492 C   0  0  0  0  0  0  0  0  0  0  0  0
  -10.3064  -25.5065    7.9031 C   0  0  0  0  0  0  0  0  0  0  0  0
  -10.3653  -24.5615    6.8737 C   0  0  0  0  0  0  0  0  0  0  0  0
   -9.5752  -24.4992    5.7708 O   0  0  0  0  0  0  0  0  0  0  0  0
   -9.6111  -22.5123    1.7794 H   0  0  0  0  0  0  0  0  0  0  0  0
   -8.7467  -21.9379    3.2163 H   0  0  0  0  0  0  0  0  0  0  0  0
  -10.4707  -21.5959    3.0298 H   0  0  0  0  0  0  0  0  0  0  0  0
   -9.2133  -24.3739    3.3677 H   0  0  0  0  0  0  0  0  0  0  0  0
  -12.0561  -23.5000    2.7285 H   0  0  0  0  0  0  0  0  0  0  0  0
  -11.1506  -24.9306    2.1865 H   0  0  0  0  0  0  0  0  0  0  0  0
  -12.7900  -24.6339    4.6191 H   0  0  0  0  0  0  0  0  0  0  0  0
  -11.6044  -28.5913    6.2185 H   0  0  0  0  0  0  0  0  0  0  0  0
  -12.7078  -28.8363    8.4420 H   0  0  0  0  0  0  0  0  0  0  0  0
  -14.4024  -27.1353    9.1482 H   0  0  0  0  0  0  0  0  0  0  0  0
  -14.9306  -25.2648    7.5800 H   0  0  0  0  0  0  0  0  0  0  0  0
  -12.9358  -22.5677    7.8031 H   0  0  0  0  0  0  0  0  0  0  0  0
  -12.8724  -24.1704    9.7341 H   0  0  0  0  0  0  0  0  0  0  0  0
  -11.2248  -26.0195    9.7854 H   0  0  0  0  0  0  0  0  0  0  0  0
   -9.5761  -26.3039    7.8944 H   0  0  0  0  0  0  0  0  0  0  0  0
  1  2  1  0
  2  3  1  0
  3  4  1  0
  4  5  1  0
  5  6  2  0
  5  7  1  0
  7  8  2  0
  8  9  1  0
  9 10  2  0
 10 11  1  0
 11 12  2  0
  2 13  1  0
 13 14  2  0
 14 15  1  0
 15 16  2  0
 16 17  1  0
 17 18  2  0
 18 19  1  0
 19 20  2  0
 20 21  1  0
 12  7  1  0
 21 13  1  0
 20 15  1  0
  1 22  1  0
  1 23  1  0
  1 24  1  0
  2 25  1  0
  3 26  1  0
  3 27  1  0
  4 28  1  0
  8 29  1  0
  9 30  1  0
 10 31  1  0
 11 32  1  0
 16 33  1  0
 17 34  1  0
 18 35  1  0
 19 36  1  0
M  END
>  <Energy>  (1165) 
93.481544219621938

>  <compound_id>  (1165) 
28074

>  <target_id>  (1165) 
1

>  <reference_id>  (1165) 
48

>  <inspiration_ids>  (1165) 
[48, 2]

>  <energy_score>  (1165) 
-14.302815613382393

>  <distance_score>  (1165) 
3.047969306065316

>  <path>  (1165) 
/opt/xchem-fragalysis-2/maxwin/BulkDock/SCRATCH/511017/C28074-P48/C28074-P48.minimised.mol

>  <scratch_subdir>  (1165) 
/opt/xchem-fragalysis-2/maxwin/BulkDock/SCRATCH/511017/C28074-P48

>  <fragmenstein_runtime>  (1165) 
1.5655462741851807

>  <fragmenstein_outcome>  (1165) 
too moved

>  <fragmenstein_mode>  (1165) 
expansion

>  <fragmenstein_error>  (1165) 


$$$$
C28074-P2
     RDKit          3D

 36 38  0  0  0  0  0  0  0  0999 V2000
   -9.1577  -22.2003    3.4646 C   0  0  0  0  0  0  0  0  0  0  0  0
   -9.6764  -23.1768    4.5149 C   0  0  0  0  0  0  0  0  0  0  0  0
  -11.1954  -23.4055    4.3569 C   0  0  0  0  0  0  0  0  0  0  0  0
  -11.7064  -24.1691    5.4682 N   0  0  0  0  0  0  0  0  0  0  0  0
  -11.5870  -25.6647    5.7890 C   0  0  0  0  0  0  0  0  0  0  0  0
  -11.1235  -26.5346    5.1700 O   0  0  0  0  0  0  0  0  0  0  0  0
  -12.1017  -25.8962    7.1896 C   0  0  0  0  0  0  0  0  0  0  0  0
  -11.9161  -27.1329    7.7906 C   0  0  0  0  0  0  0  0  0  0  0  0
  -12.2333  -27.2593    9.1386 C   0  0  0  0  0  0  0  0  0  0  0  0
  -12.7277  -26.1587    9.8316 C   0  0  0  0  0  0  0  0  0  0  0  0
  -12.9011  -24.9681    9.1440 C   0  0  0  0  0  0  0  0  0  0  0  0
  -12.5978  -24.8001    7.8404 N   0  0  0  0  0  0  0  0  0  0  0  0
   -9.3905  -22.6924    5.9001 C   0  0  0  0  0  0  0  0  0  0  0  0
   -9.5724  -21.4901    6.4114 N   0  0  0  0  0  0  0  0  0  0  0  0
   -9.3109  -21.6719    7.7443 C   0  0  0  0  0  0  0  0  0  0  0  0
   -9.2828  -20.7603    8.7980 C   0  0  0  0  0  0  0  0  0  0  0  0
   -8.8834  -21.2229   10.0613 C   0  0  0  0  0  0  0  0  0  0  0  0
   -8.5948  -22.5740   10.2824 C   0  0  0  0  0  0  0  0  0  0  0  0
   -8.6550  -23.5081    9.2428 C   0  0  0  0  0  0  0  0  0  0  0  0
   -8.9886  -22.9939    7.9965 C   0  0  0  0  0  0  0  0  0  0  0  0
   -9.0200  -23.6560    6.8071 O   0  0  0  0  0  0  0  0  0  0  0  0
   -8.0784  -22.0455    3.5736 H   0  0  0  0  0  0  0  0  0  0  0  0
   -9.6423  -21.2209    3.5491 H   0  0  0  0  0  0  0  0  0  0  0  0
   -9.3437  -22.5826    2.4554 H   0  0  0  0  0  0  0  0  0  0  0  0
   -9.1617  -24.1367    4.3743 H   0  0  0  0  0  0  0  0  0  0  0  0
  -11.7462  -22.4591    4.3322 H   0  0  0  0  0  0  0  0  0  0  0  0
  -11.3974  -23.9619    3.4360 H   0  0  0  0  0  0  0  0  0  0  0  0
  -12.0964  -23.6780    6.2745 H   0  0  0  0  0  0  0  0  0  0  0  0
  -11.4971  -27.9652    7.2344 H   0  0  0  0  0  0  0  0  0  0  0  0
  -12.0875  -28.2087    9.6472 H   0  0  0  0  0  0  0  0  0  0  0  0
  -12.9835  -26.2319   10.8833 H   0  0  0  0  0  0  0  0  0  0  0  0
  -13.3035  -24.0929    9.6415 H   0  0  0  0  0  0  0  0  0  0  0  0
   -9.5125  -19.7226    8.6030 H   0  0  0  0  0  0  0  0  0  0  0  0
   -8.7737  -20.5197   10.8841 H   0  0  0  0  0  0  0  0  0  0  0  0
   -8.2678  -22.8903   11.2714 H   0  0  0  0  0  0  0  0  0  0  0  0
   -8.3980  -24.5494    9.3832 H   0  0  0  0  0  0  0  0  0  0  0  0
  1  2  1  0
  2  3  1  0
  3  4  1  0
  4  5  1  0
  5  6  2  0
  5  7  1  0
  7  8  2  0
  8  9  1  0
  9 10  2  0
 10 11  1  0
 11 12  2  0
  2 13  1  0
 13 14  2  0
 14 15  1  0
 15 16  2  0
 16 17  1  0
 17 18  2  0
 18 19  1  0
 19 20  2  0
 20 21  1  0
 12  7  1  0
 21 13  1  0
 20 15  1  0
  1 22  1  0
  1 23  1  0
  1 24  1  0
  2 25  1  0
  3 26  1  0
  3 27  1  0
  4 28  1  0
  8 29  1  0
  9 30  1  0
 10 31  1  0
 11 32  1  0
 16 33  1  0
 17 34  1  0
 18 35  1  0
 19 36  1  0
M  END
>  <Energy>  (1166) 
76.188238010644909

>  <compound_id>  (1166) 
28074

>  <target_id>  (1166) 
1

>  <reference_id>  (1166) 
2

>  <inspiration_ids>  (1166) 
[48, 2]

>  <energy_score>  (1166) 
-31.596121822358626

>  <distance_score>  (1166) 
0.6210026958130546

>  <path>  (1166) 
/opt/xchem-fragalysis-2/maxwin/BulkDock/SCRATCH/511017/C28074-P2/C28074-P2.minimised.mol

>  <scratch_subdir>  (1166) 
/opt/xchem-fragalysis-2/maxwin/BulkDock/SCRATCH/511017/C28074-P2

>  <fragmenstein_runtime>  (1166) 
1.05130934715271

>  <fragmenstein_outcome>  (1166) 
acceptable

>  <fragmenstein_mode>  (1166) 
expansion

>  <fragmenstein_error>  (1166) 


$$$$
C28075-P48
     RDKit          3D

 36 38  0  0  0  0  0  0  0  0999 V2000
  -10.1327  -23.7944    3.3367 C   0  0  0  0  0  0  0  0  0  0  0  0
   -9.6081  -22.9343    4.4874 C   0  0  0  0  0  0  0  0  0  0  0  0
  -10.7665  -22.1912    5.2228 C   0  0  0  0  0  0  0  0  0  0  0  0
  -11.3855  -23.0098    6.2362 N   0  0  0  0  0  0  0  0  0  0  0  0
  -12.4616  -24.1037    6.1183 C   0  0  0  0  0  0  0  0  0  0  0  0
  -13.0749  -24.4639    5.1949 O   0  0  0  0  0  0  0  0  0  0  0  0
  -12.5926  -24.8136    7.4336 C   0  0  0  0  0  0  0  0  0  0  0  0
  -12.4298  -26.1984    7.4504 C   0  0  0  0  0  0  0  0  0  0  0  0
  -12.3078  -26.8385    8.6839 C   0  0  0  0  0  0  0  0  0  0  0  0
  -12.3711  -26.0775    9.8438 C   0  0  0  0  0  0  0  0  0  0  0  0
  -12.1357  -26.7830   11.3878 Cl  0  0  0  0  0  0  0  0  0  0  0  0
  -12.5878  -24.7132    9.7300 C   0  0  0  0  0  0  0  0  0  0  0  0
  -12.6833  -24.0478    8.5537 N   0  0  0  0  0  0  0  0  0  0  0  0
   -8.8292  -23.7814    5.4452 C   0  0  0  0  0  0  0  0  0  0  0  0
   -9.3002  -24.7450    6.2123 N   0  0  0  0  0  0  0  0  0  0  0  0
   -8.3302  -24.9013    7.1562 C   0  0  0  0  0  0  0  0  0  0  0  0
   -8.3482  -25.5622    8.3911 C   0  0  0  0  0  0  0  0  0  0  0  0
   -7.2405  -25.4305    9.2389 C   0  0  0  0  0  0  0  0  0  0  0  0
   -6.0990  -24.7491    8.8164 C   0  0  0  0  0  0  0  0  0  0  0  0
   -6.0391  -24.1525    7.5495 C   0  0  0  0  0  0  0  0  0  0  0  0
   -7.2052  -24.1899    6.7944 C   0  0  0  0  0  0  0  0  0  0  0  0
   -7.5111  -23.4716    5.6665 O   0  0  0  0  0  0  0  0  0  0  0  0
  -10.7039  -23.1878    2.6261 H   0  0  0  0  0  0  0  0  0  0  0  0
   -9.3027  -24.2564    2.7898 H   0  0  0  0  0  0  0  0  0  0  0  0
  -10.7793  -24.6039    3.6902 H   0  0  0  0  0  0  0  0  0  0  0  0
   -8.9493  -22.1724    4.0518 H   0  0  0  0  0  0  0  0  0  0  0  0
  -11.5351  -21.8689    4.5133 H   0  0  0  0  0  0  0  0  0  0  0  0
  -10.3733  -21.3072    5.7358 H   0  0  0  0  0  0  0  0  0  0  0  0
  -10.9921  -23.0157    7.1885 H   0  0  0  0  0  0  0  0  0  0  0  0
  -12.3301  -26.7491    6.5199 H   0  0  0  0  0  0  0  0  0  0  0  0
  -12.1368  -27.9101    8.7255 H   0  0  0  0  0  0  0  0  0  0  0  0
  -12.6640  -24.0979   10.6212 H   0  0  0  0  0  0  0  0  0  0  0  0
   -9.2316  -26.1030    8.7042 H   0  0  0  0  0  0  0  0  0  0  0  0
   -7.2589  -25.8934   10.2222 H   0  0  0  0  0  0  0  0  0  0  0  0
   -5.2380  -24.6815    9.4786 H   0  0  0  0  0  0  0  0  0  0  0  0
   -5.1661  -23.6071    7.2164 H   0  0  0  0  0  0  0  0  0  0  0  0
  1  2  1  0
  2  3  1  0
  3  4  1  0
  4  5  1  0
  5  6  2  0
  5  7  1  0
  7  8  2  0
  8  9  1  0
  9 10  2  0
 10 11  1  0
 10 12  1  0
 12 13  2  0
  2 14  1  0
 14 15  2  0
 15 16  1  0
 16 17  2  0
 17 18  1  0
 18 19  2  0
 19 20  1  0
 20 21  2  0
 21 22  1  0
 13  7  1  0
 22 14  1  0
 21 16  1  0
  1 23  1  0
  1 24  1  0
  1 25  1  0
  2 26  1  0
  3 27  1  0
  3 28  1  0
  4 29  1  0
  8 30  1  0
  9 31  1  0
 12 32  1  0
 17 33  1  0
 18 34  1  0
 19 35  1  0
 20 36  1  0
M  END
>  <Energy>  (1167) 
99.31804740037569

>  <compound_id>  (1167) 
28075

>  <target_id>  (1167) 
1

>  <reference_id>  (1167) 
48

>  <inspiration_ids>  (1167) 
[48, 2]

>  <energy_score>  (1167) 
-4.587708305058651

>  <distance_score>  (1167) 
2.651641224454176

>  <path>  (1167) 
/opt/xchem-fragalysis-2/maxwin/BulkDock/SCRATCH/511017/C28075-P48/C28075-P48.minimised.mol

>  <scratch_subdir>  (1167) 
/opt/xchem-fragalysis-2/maxwin/BulkDock/SCRATCH/511017/C28075-P48

>  <fragmenstein_runtime>  (1167) 
1.9287054538726807

>  <fragmenstein_outcome>  (1167) 
too moved

>  <fragmenstein_mode>  (1167) 
expansion

>  <fragmenstein_error>  (1167) 


$$$$
C28075-P2
     RDKit          3D

 36 38  0  0  0  0  0  0  0  0999 V2000
   -8.8881  -24.3250    4.0277 C   0  0  0  0  0  0  0  0  0  0  0  0
   -9.7248  -23.1188    4.4563 C   0  0  0  0  0  0  0  0  0  0  0  0
  -11.2441  -23.4003    4.3454 C   0  0  0  0  0  0  0  0  0  0  0  0
  -11.7194  -24.1346    5.4916 N   0  0  0  0  0  0  0  0  0  0  0  0
  -11.8593  -25.6441    5.7199 C   0  0  0  0  0  0  0  0  0  0  0  0
  -11.6867  -26.5360    4.9932 O   0  0  0  0  0  0  0  0  0  0  0  0
  -12.1848  -25.8645    7.1791 C   0  0  0  0  0  0  0  0  0  0  0  0
  -12.1112  -27.1433    7.7149 C   0  0  0  0  0  0  0  0  0  0  0  0
  -12.1336  -27.2769    9.1030 C   0  0  0  0  0  0  0  0  0  0  0  0
  -12.2236  -26.1382    9.8973 C   0  0  0  0  0  0  0  0  0  0  0  0
  -12.1590  -26.2525   11.6062 Cl  0  0  0  0  0  0  0  0  0  0  0  0
  -12.3303  -24.9039    9.2765 C   0  0  0  0  0  0  0  0  0  0  0  0
  -12.3234  -24.7313    7.9350 N   0  0  0  0  0  0  0  0  0  0  0  0
   -9.4004  -22.6690    5.8487 C   0  0  0  0  0  0  0  0  0  0  0  0
   -9.5559  -21.4659    6.3670 N   0  0  0  0  0  0  0  0  0  0  0  0
   -9.3057  -21.6582    7.7013 C   0  0  0  0  0  0  0  0  0  0  0  0
   -9.2713  -20.7533    8.7610 C   0  0  0  0  0  0  0  0  0  0  0  0
   -8.8867  -21.2289   10.0242 C   0  0  0  0  0  0  0  0  0  0  0  0
   -8.6163  -22.5850   10.2386 C   0  0  0  0  0  0  0  0  0  0  0  0
   -8.6834  -23.5118    9.1929 C   0  0  0  0  0  0  0  0  0  0  0  0
   -9.0064  -22.9863    7.9481 C   0  0  0  0  0  0  0  0  0  0  0  0
   -9.0550  -23.6436    6.7564 O   0  0  0  0  0  0  0  0  0  0  0  0
   -9.1077  -24.5973    2.9898 H   0  0  0  0  0  0  0  0  0  0  0  0
   -7.8179  -24.0990    4.0953 H   0  0  0  0  0  0  0  0  0  0  0  0
   -9.0791  -25.2044    4.6517 H   0  0  0  0  0  0  0  0  0  0  0  0
   -9.4854  -22.2997    3.7662 H   0  0  0  0  0  0  0  0  0  0  0  0
  -11.4757  -23.9665    3.4379 H   0  0  0  0  0  0  0  0  0  0  0  0
  -11.8013  -22.4575    4.3262 H   0  0  0  0  0  0  0  0  0  0  0  0
  -11.8692  -23.6413    6.3739 H   0  0  0  0  0  0  0  0  0  0  0  0
  -11.9745  -28.0082    7.0730 H   0  0  0  0  0  0  0  0  0  0  0  0
  -12.0443  -28.2618    9.5535 H   0  0  0  0  0  0  0  0  0  0  0  0
  -12.3924  -23.9898    9.8556 H   0  0  0  0  0  0  0  0  0  0  0  0
   -9.4833  -19.7108    8.5709 H   0  0  0  0  0  0  0  0  0  0  0  0
   -8.7716  -20.5319   10.8519 H   0  0  0  0  0  0  0  0  0  0  0  0
   -8.2988  -22.9112   11.2277 H   0  0  0  0  0  0  0  0  0  0  0  0
   -8.4413  -24.5573    9.3292 H   0  0  0  0  0  0  0  0  0  0  0  0
  1  2  1  0
  2  3  1  0
  3  4  1  0
  4  5  1  0
  5  6  2  0
  5  7  1  0
  7  8  2  0
  8  9  1  0
  9 10  2  0
 10 11  1  0
 10 12  1  0
 12 13  2  0
  2 14  1  0
 14 15  2  0
 15 16  1  0
 16 17  2  0
 17 18  1  0
 18 19  2  0
 19 20  1  0
 20 21  2  0
 21 22  1  0
 13  7  1  0
 22 14  1  0
 21 16  1  0
  1 23  1  0
  1 24  1  0
  1 25  1  0
  2 26  1  0
  3 27  1  0
  3 28  1  0
  4 29  1  0
  8 30  1  0
  9 31  1  0
 12 32  1  0
 17 33  1  0
 18 34  1  0
 19 35  1  0
 20 36  1  0
M  END
>  <Energy>  (1168) 
87.919087641652425

>  <compound_id>  (1168) 
28075

>  <target_id>  (1168) 
1

>  <reference_id>  (1168) 
2

>  <inspiration_ids>  (1168) 
[48, 2]

>  <energy_score>  (1168) 
-15.98666806378123

>  <distance_score>  (1168) 
0.5149207502517048

>  <path>  (1168) 
/opt/xchem-fragalysis-2/maxwin/BulkDock/SCRATCH/511017/C28075-P2/C28075-P2.minimised.mol

>  <scratch_subdir>  (1168) 
/opt/xchem-fragalysis-2/maxwin/BulkDock/SCRATCH/511017/C28075-P2

>  <fragmenstein_runtime>  (1168) 
1.607792615890503

>  <fragmenstein_outcome>  (1168) 
acceptable

>  <fragmenstein_mode>  (1168) 
expansion

>  <fragmenstein_error>  (1168) 


$$$$
C28076-P48
     RDKit          3D

 36 38  0  0  0  0  0  0  0  0999 V2000
   -9.9243  -21.5162    4.8200 C   0  0  0  0  0  0  0  0  0  0  0  0
   -9.8016  -22.9754    4.3663 C   0  0  0  0  0  0  0  0  0  0  0  0
  -11.2267  -23.5708    4.1568 C   0  0  0  0  0  0  0  0  0  0  0  0
  -11.7789  -24.1577    5.3523 N   0  0  0  0  0  0  0  0  0  0  0  0
  -12.4483  -25.5220    5.5771 C   0  0  0  0  0  0  0  0  0  0  0  0
  -12.7307  -26.3591    4.8175 O   0  0  0  0  0  0  0  0  0  0  0  0
  -12.6357  -25.7419    7.0564 C   0  0  0  0  0  0  0  0  0  0  0  0
  -12.4205  -27.0284    7.5523 C   0  0  0  0  0  0  0  0  0  0  0  0
  -12.3058  -27.2027    8.9302 C   0  0  0  0  0  0  0  0  0  0  0  0
  -12.4263  -26.0962    9.7539 C   0  0  0  0  0  0  0  0  0  0  0  0
  -12.2715  -26.2146   11.0793 F   0  0  0  0  0  0  0  0  0  0  0  0
  -12.6876  -24.8621    9.1819 C   0  0  0  0  0  0  0  0  0  0  0  0
  -12.7844  -24.6410    7.8482 N   0  0  0  0  0  0  0  0  0  0  0  0
   -8.9766  -23.7548    5.3511 C   0  0  0  0  0  0  0  0  0  0  0  0
   -9.3948  -24.6478    6.2234 N   0  0  0  0  0  0  0  0  0  0  0  0
   -8.3468  -24.8086    7.0742 C   0  0  0  0  0  0  0  0  0  0  0  0
   -8.2631  -25.4633    8.3101 C   0  0  0  0  0  0  0  0  0  0  0  0
   -7.0924  -25.3200    9.0641 C   0  0  0  0  0  0  0  0  0  0  0  0
   -5.9952  -24.6329    8.5452 C   0  0  0  0  0  0  0  0  0  0  0  0
   -6.0368  -24.0550    7.2673 C   0  0  0  0  0  0  0  0  0  0  0  0
   -7.2561  -24.1098    6.6045 C   0  0  0  0  0  0  0  0  0  0  0  0
   -7.6438  -23.4374    5.4729 O   0  0  0  0  0  0  0  0  0  0  0  0
  -10.5029  -20.9309    4.0972 H   0  0  0  0  0  0  0  0  0  0  0  0
  -10.4217  -21.4375    5.7934 H   0  0  0  0  0  0  0  0  0  0  0  0
   -8.9391  -21.0457    4.9056 H   0  0  0  0  0  0  0  0  0  0  0  0
   -9.2892  -22.9780    3.3962 H   0  0  0  0  0  0  0  0  0  0  0  0
  -11.1754  -24.3716    3.4102 H   0  0  0  0  0  0  0  0  0  0  0  0
  -11.9314  -22.8200    3.7856 H   0  0  0  0  0  0  0  0  0  0  0  0
  -11.6051  -23.7106    6.2549 H   0  0  0  0  0  0  0  0  0  0  0  0
  -12.2741  -27.8623    6.8721 H   0  0  0  0  0  0  0  0  0  0  0  0
  -12.0998  -28.1800    9.3532 H   0  0  0  0  0  0  0  0  0  0  0  0
  -12.8111  -23.9948    9.8147 H   0  0  0  0  0  0  0  0  0  0  0  0
   -9.1214  -25.9958    8.6993 H   0  0  0  0  0  0  0  0  0  0  0  0
   -7.0304  -25.7691   10.0518 H   0  0  0  0  0  0  0  0  0  0  0  0
   -5.0859  -24.5506    9.1373 H   0  0  0  0  0  0  0  0  0  0  0  0
   -5.1955  -23.5106    6.8587 H   0  0  0  0  0  0  0  0  0  0  0  0
  1  2  1  0
  2  3  1  0
  3  4  1  0
  4  5  1  0
  5  6  2  0
  5  7  1  0
  7  8  2  0
  8  9  1  0
  9 10  2  0
 10 11  1  0
 10 12  1  0
 12 13  2  0
  2 14  1  0
 14 15  2  0
 15 16  1  0
 16 17  2  0
 17 18  1  0
 18 19  2  0
 19 20  1  0
 20 21  2  0
 21 22  1  0
 13  7  1  0
 22 14  1  0
 21 16  1  0
  1 23  1  0
  1 24  1  0
  1 25  1  0
  2 26  1  0
  3 27  1  0
  3 28  1  0
  4 29  1  0
  8 30  1  0
  9 31  1  0
 12 32  1  0
 17 33  1  0
 18 34  1  0
 19 35  1  0
 20 36  1  0
M  END
>  <Energy>  (1169) 
99.027474366627644

>  <compound_id>  (1169) 
28076

>  <target_id>  (1169) 
1

>  <reference_id>  (1169) 
48

>  <inspiration_ids>  (1169) 
[48, 2]

>  <energy_score>  (1169) 
6.837439802907431

>  <distance_score>  (1169) 
2.6538665447740946

>  <path>  (1169) 
/opt/xchem-fragalysis-2/maxwin/BulkDock/SCRATCH/511017/C28076-P48/C28076-P48.minimised.mol

>  <scratch_subdir>  (1169) 
/opt/xchem-fragalysis-2/maxwin/BulkDock/SCRATCH/511017/C28076-P48

>  <fragmenstein_runtime>  (1169) 
1.8572173118591309

>  <fragmenstein_outcome>  (1169) 
too moved

>  <fragmenstein_mode>  (1169) 
expansion

>  <fragmenstein_error>  (1169) 


$$$$
C28076-P2
     RDKit          3D

 36 38  0  0  0  0  0  0  0  0999 V2000
   -9.2586  -22.1994    3.4358 C   0  0  0  0  0  0  0  0  0  0  0  0
   -9.7450  -23.1688    4.5072 C   0  0  0  0  0  0  0  0  0  0  0  0
  -11.2728  -23.3864    4.4086 C   0  0  0  0  0  0  0  0  0  0  0  0
  -11.7356  -24.1253    5.5570 N   0  0  0  0  0  0  0  0  0  0  0  0
  -11.8946  -25.6347    5.7726 C   0  0  0  0  0  0  0  0  0  0  0  0
  -11.7513  -26.5214    5.0334 O   0  0  0  0  0  0  0  0  0  0  0  0
  -12.1933  -25.8668    7.2363 C   0  0  0  0  0  0  0  0  0  0  0  0
  -12.0965  -27.1504    7.7612 C   0  0  0  0  0  0  0  0  0  0  0  0
  -12.1154  -27.2968    9.1473 C   0  0  0  0  0  0  0  0  0  0  0  0
  -12.2249  -26.1662    9.9444 C   0  0  0  0  0  0  0  0  0  0  0  0
  -12.1844  -26.2703   11.2782 F   0  0  0  0  0  0  0  0  0  0  0  0
  -12.3500  -24.9278    9.3406 C   0  0  0  0  0  0  0  0  0  0  0  0
  -12.3501  -24.7407    8.0009 N   0  0  0  0  0  0  0  0  0  0  0  0
   -9.4072  -22.6823    5.8815 C   0  0  0  0  0  0  0  0  0  0  0  0
   -9.5845  -21.4824    6.4000 N   0  0  0  0  0  0  0  0  0  0  0  0
   -9.3118  -21.6691    7.7301 C   0  0  0  0  0  0  0  0  0  0  0  0
   -9.2854  -20.7637    8.7894 C   0  0  0  0  0  0  0  0  0  0  0  0
   -8.8822  -21.2320   10.0493 C   0  0  0  0  0  0  0  0  0  0  0  0
   -8.5850  -22.5827   10.2612 C   0  0  0  0  0  0  0  0  0  0  0  0
   -8.6395  -23.5101    9.2153 C   0  0  0  0  0  0  0  0  0  0  0  0
   -8.9809  -22.9909    7.9729 C   0  0  0  0  0  0  0  0  0  0  0  0
   -9.0188  -23.6477    6.7801 O   0  0  0  0  0  0  0  0  0  0  0  0
   -8.1748  -22.0531    3.5039 H   0  0  0  0  0  0  0  0  0  0  0  0
   -9.4855  -22.5827    2.4354 H   0  0  0  0  0  0  0  0  0  0  0  0
   -9.7317  -21.2159    3.5358 H   0  0  0  0  0  0  0  0  0  0  0  0
   -9.2445  -24.1340    4.3525 H   0  0  0  0  0  0  0  0  0  0  0  0
  -11.8141  -22.4343    4.3966 H   0  0  0  0  0  0  0  0  0  0  0  0
  -11.5189  -23.9514    3.5040 H   0  0  0  0  0  0  0  0  0  0  0  0
  -12.0214  -23.6285    6.4026 H   0  0  0  0  0  0  0  0  0  0  0  0
  -11.9495  -28.0074    7.1111 H   0  0  0  0  0  0  0  0  0  0  0  0
  -12.0125  -28.2755    9.6048 H   0  0  0  0  0  0  0  0  0  0  0  0
  -12.4247  -24.0316    9.9427 H   0  0  0  0  0  0  0  0  0  0  0  0
   -9.5218  -19.7258    8.6024 H   0  0  0  0  0  0  0  0  0  0  0  0
   -8.7754  -20.5331   10.8764 H   0  0  0  0  0  0  0  0  0  0  0  0
   -8.2539  -22.9030   11.2478 H   0  0  0  0  0  0  0  0  0  0  0  0
   -8.3744  -24.5503    9.3493 H   0  0  0  0  0  0  0  0  0  0  0  0
  1  2  1  0
  2  3  1  0
  3  4  1  0
  4  5  1  0
  5  6  2  0
  5  7  1  0
  7  8  2  0
  8  9  1  0
  9 10  2  0
 10 11  1  0
 10 12  1  0
 12 13  2  0
  2 14  1  0
 14 15  2  0
 15 16  1  0
 16 17  2  0
 17 18  1  0
 18 19  2  0
 19 20  1  0
 20 21  2  0
 21 22  1  0
 13  7  1  0
 22 14  1  0
 21 16  1  0
  1 23  1  0
  1 24  1  0
  1 25  1  0
  2 26  1  0
  3 27  1  0
  3 28  1  0
  4 29  1  0
  8 30  1  0
  9 31  1  0
 12 32  1  0
 17 33  1  0
 18 34  1  0
 19 35  1  0
 20 36  1  0
M  END
>  <Energy>  (1170) 
87.377945646096833

>  <compound_id>  (1170) 
28076

>  <target_id>  (1170) 
1

>  <reference_id>  (1170) 
2

>  <inspiration_ids>  (1170) 
[48, 2]

>  <energy_score>  (1170) 
-4.812088917621871

>  <distance_score>  (1170) 
0.510228661000536

>  <path>  (1170) 
/opt/xchem-fragalysis-2/maxwin/BulkDock/SCRATCH/511017/C28076-P2/C28076-P2.minimised.mol

>  <scratch_subdir>  (1170) 
/opt/xchem-fragalysis-2/maxwin/BulkDock/SCRATCH/511017/C28076-P2

>  <fragmenstein_runtime>  (1170) 
2.014474391937256

>  <fragmenstein_outcome>  (1170) 
acceptable

>  <fragmenstein_mode>  (1170) 
expansion

>  <fragmenstein_error>  (1170) 


$$$$
C28077-P48
     RDKit          3D

 39 41  0  0  0  0  0  0  0  0999 V2000
  -12.5924  -25.7625   11.1856 C   0  0  0  0  0  0  0  0  0  0  0  0
  -12.2324  -26.3215    9.8469 C   0  0  0  0  0  0  0  0  0  0  0  0
  -12.0340  -27.6919    9.6740 C   0  0  0  0  0  0  0  0  0  0  0  0
  -11.5598  -28.1825    8.4609 C   0  0  0  0  0  0  0  0  0  0  0  0
  -11.2683  -27.2760    7.4592 C   0  0  0  0  0  0  0  0  0  0  0  0
  -10.4741  -27.7492    6.2533 C   0  0  0  0  0  0  0  0  0  0  0  0
  -10.4358  -28.8726    5.9523 O   0  0  0  0  0  0  0  0  0  0  0  0
   -9.7636  -26.5339    5.6486 N   0  0  0  0  0  0  0  0  0  0  0  0
   -8.7712  -26.4502    4.5945 C   0  0  0  0  0  0  0  0  0  0  0  0
   -7.6776  -25.3738    4.8733 C   0  0  0  0  0  0  0  0  0  0  0  0
   -6.6762  -25.3424    3.7202 C   0  0  0  0  0  0  0  0  0  0  0  0
   -8.2679  -24.0360    5.1190 C   0  0  0  0  0  0  0  0  0  0  0  0
   -7.9335  -22.8360    4.6831 N   0  0  0  0  0  0  0  0  0  0  0  0
   -8.9986  -22.0734    5.0683 C   0  0  0  0  0  0  0  0  0  0  0  0
   -9.2651  -20.7220    4.8907 C   0  0  0  0  0  0  0  0  0  0  0  0
  -10.5161  -20.2888    5.3045 C   0  0  0  0  0  0  0  0  0  0  0  0
  -11.4348  -21.1623    5.9056 C   0  0  0  0  0  0  0  0  0  0  0  0
  -11.1286  -22.4641    6.2382 C   0  0  0  0  0  0  0  0  0  0  0  0
   -9.9047  -22.8508    5.7620 C   0  0  0  0  0  0  0  0  0  0  0  0
   -9.3924  -24.0781    5.8736 O   0  0  0  0  0  0  0  0  0  0  0  0
  -11.5128  -25.9353    7.5677 N   0  0  0  0  0  0  0  0  0  0  0  0
  -11.9884  -25.4973    8.7563 C   0  0  0  0  0  0  0  0  0  0  0  0
  -13.2322  -26.4570   11.7401 H   0  0  0  0  0  0  0  0  0  0  0  0
  -11.6865  -25.5719   11.7694 H   0  0  0  0  0  0  0  0  0  0  0  0
  -13.1467  -24.8238   11.0806 H   0  0  0  0  0  0  0  0  0  0  0  0
  -12.2063  -28.3834   10.4959 H   0  0  0  0  0  0  0  0  0  0  0  0
  -11.3442  -29.2387    8.3344 H   0  0  0  0  0  0  0  0  0  0  0  0
  -10.0923  -25.6802    6.1120 H   0  0  0  0  0  0  0  0  0  0  0  0
   -9.3172  -26.2117    3.6745 H   0  0  0  0  0  0  0  0  0  0  0  0
   -8.3218  -27.4414    4.4731 H   0  0  0  0  0  0  0  0  0  0  0  0
   -7.1410  -25.6665    5.7855 H   0  0  0  0  0  0  0  0  0  0  0  0
   -7.1556  -25.0413    2.7816 H   0  0  0  0  0  0  0  0  0  0  0  0
   -6.2260  -26.3293    3.5692 H   0  0  0  0  0  0  0  0  0  0  0  0
   -5.8653  -24.6335    3.9216 H   0  0  0  0  0  0  0  0  0  0  0  0
   -8.5771  -20.0707    4.3688 H   0  0  0  0  0  0  0  0  0  0  0  0
  -10.8183  -19.2743    5.0484 H   0  0  0  0  0  0  0  0  0  0  0  0
  -12.4631  -20.8434    6.0113 H   0  0  0  0  0  0  0  0  0  0  0  0
  -11.8153  -23.1515    6.7058 H   0  0  0  0  0  0  0  0  0  0  0  0
  -12.1378  -24.4232    8.8164 H   0  0  0  0  0  0  0  0  0  0  0  0
  1  2  1  0
  2  3  2  0
  3  4  1  0
  4  5  2  0
  5  6  1  0
  6  7  2  0
  6  8  1  0
  8  9  1  0
  9 10  1  0
 10 11  1  0
 10 12  1  0
 12 13  2  0
 13 14  1  0
 14 15  2  0
 15 16  1  0
 16 17  2  0
 17 18  1  0
 18 19  2  0
 19 20  1  0
  5 21  1  0
 21 22  2  0
 22  2  1  0
 20 12  1  0
 19 14  1  0
  1 23  1  0
  1 24  1  0
  1 25  1  0
  3 26  1  0
  4 27  1  0
  8 28  1  0
  9 29  1  0
  9 30  1  0
 10 31  1  0
 11 32  1  0
 11 33  1  0
 11 34  1  0
 15 35  1  0
 16 36  1  0
 17 37  1  0
 18 38  1  0
 22 39  1  0
M  END
>  <Energy>  (1171) 
89.823620284433645

>  <compound_id>  (1171) 
28077

>  <target_id>  (1171) 
1

>  <reference_id>  (1171) 
48

>  <inspiration_ids>  (1171) 
[48, 2]

>  <energy_score>  (1171) 
-1.8231814756455407

>  <distance_score>  (1171) 
2.9321546492069404

>  <path>  (1171) 
/opt/xchem-fragalysis-2/maxwin/BulkDock/SCRATCH/511017/C28077-P48/C28077-P48.minimised.mol

>  <scratch_subdir>  (1171) 
/opt/xchem-fragalysis-2/maxwin/BulkDock/SCRATCH/511017/C28077-P48

>  <fragmenstein_runtime>  (1171) 
2.78550386428833

>  <fragmenstein_outcome>  (1171) 
too moved

>  <fragmenstein_mode>  (1171) 
expansion

>  <fragmenstein_error>  (1171) 


$$$$
C28077-P2
     RDKit          3D

 39 41  0  0  0  0  0  0  0  0999 V2000
  -12.1975  -26.2469   11.4312 C   0  0  0  0  0  0  0  0  0  0  0  0
  -12.2073  -26.1419    9.9392 C   0  0  0  0  0  0  0  0  0  0  0  0
  -12.1155  -27.2754    9.1277 C   0  0  0  0  0  0  0  0  0  0  0  0
  -12.0876  -27.1366    7.7423 C   0  0  0  0  0  0  0  0  0  0  0  0
  -12.1706  -25.8576    7.2155 C   0  0  0  0  0  0  0  0  0  0  0  0
  -11.8349  -25.6246    5.7599 C   0  0  0  0  0  0  0  0  0  0  0  0
  -11.6240  -26.5101    5.0351 O   0  0  0  0  0  0  0  0  0  0  0  0
  -11.7423  -24.1107    5.5334 N   0  0  0  0  0  0  0  0  0  0  0  0
  -11.2777  -23.3605    4.3930 C   0  0  0  0  0  0  0  0  0  0  0  0
   -9.7484  -23.1500    4.4913 C   0  0  0  0  0  0  0  0  0  0  0  0
   -9.2591  -22.1787    3.4227 C   0  0  0  0  0  0  0  0  0  0  0  0
   -9.4072  -22.6688    5.8669 C   0  0  0  0  0  0  0  0  0  0  0  0
   -9.5808  -21.4702    6.3897 N   0  0  0  0  0  0  0  0  0  0  0  0
   -9.3115  -21.6630    7.7197 C   0  0  0  0  0  0  0  0  0  0  0  0
   -9.2838  -20.7616    8.7825 C   0  0  0  0  0  0  0  0  0  0  0  0
   -8.8831  -21.2354   10.0412 C   0  0  0  0  0  0  0  0  0  0  0  0
   -8.5908  -22.5879   10.2486 C   0  0  0  0  0  0  0  0  0  0  0  0
   -8.6482  -23.5116    9.1993 C   0  0  0  0  0  0  0  0  0  0  0  0
   -8.9856  -22.9866    7.9582 C   0  0  0  0  0  0  0  0  0  0  0  0
   -9.0236  -23.6386    6.7626 O   0  0  0  0  0  0  0  0  0  0  0  0
  -12.3297  -24.7317    7.9748 N   0  0  0  0  0  0  0  0  0  0  0  0
  -12.3400  -24.9089    9.3121 C   0  0  0  0  0  0  0  0  0  0  0  0
  -11.6273  -27.1227   11.7583 H   0  0  0  0  0  0  0  0  0  0  0  0
  -11.7265  -25.3665   11.8813 H   0  0  0  0  0  0  0  0  0  0  0  0
  -13.2213  -26.3322   11.8080 H   0  0  0  0  0  0  0  0  0  0  0  0
  -12.0273  -28.2662    9.5676 H   0  0  0  0  0  0  0  0  0  0  0  0
  -11.9418  -27.9967    7.0971 H   0  0  0  0  0  0  0  0  0  0  0  0
  -11.9191  -23.6230    6.4140 H   0  0  0  0  0  0  0  0  0  0  0  0
  -11.5264  -23.9160    3.4833 H   0  0  0  0  0  0  0  0  0  0  0  0
  -11.8155  -22.4065    4.3920 H   0  0  0  0  0  0  0  0  0  0  0  0
   -9.2518  -24.1166    4.3328 H   0  0  0  0  0  0  0  0  0  0  0  0
   -8.1747  -22.0367    3.4905 H   0  0  0  0  0  0  0  0  0  0  0  0
   -9.7285  -21.1938    3.5264 H   0  0  0  0  0  0  0  0  0  0  0  0
   -9.4882  -22.5578    2.4212 H   0  0  0  0  0  0  0  0  0  0  0  0
   -9.5167  -19.7224    8.5984 H   0  0  0  0  0  0  0  0  0  0  0  0
   -8.7743  -20.5394   10.8704 H   0  0  0  0  0  0  0  0  0  0  0  0
   -8.2615  -22.9130   11.2340 H   0  0  0  0  0  0  0  0  0  0  0  0
   -8.3899  -24.5540    9.3290 H   0  0  0  0  0  0  0  0  0  0  0  0
  -12.4283  -23.9951    9.8891 H   0  0  0  0  0  0  0  0  0  0  0  0
  1  2  1  0
  2  3  2  0
  3  4  1  0
  4  5  2  0
  5  6  1  0
  6  7  2  0
  6  8  1  0
  8  9  1  0
  9 10  1  0
 10 11  1  0
 10 12  1  0
 12 13  2  0
 13 14  1  0
 14 15  2  0
 15 16  1  0
 16 17  2  0
 17 18  1  0
 18 19  2  0
 19 20  1  0
  5 21  1  0
 21 22  2  0
 22  2  1  0
 20 12  1  0
 19 14  1  0
  1 23  1  0
  1 24  1  0
  1 25  1  0
  3 26  1  0
  4 27  1  0
  8 28  1  0
  9 29  1  0
  9 30  1  0
 10 31  1  0
 11 32  1  0
 11 33  1  0
 11 34  1  0
 15 35  1  0
 16 36  1  0
 17 37  1  0
 18 38  1  0
 22 39  1  0
M  END
>  <Energy>  (1172) 
79.730898992162835

>  <compound_id>  (1172) 
28077

>  <target_id>  (1172) 
1

>  <reference_id>  (1172) 
2

>  <inspiration_ids>  (1172) 
[48, 2]

>  <energy_score>  (1172) 
-11.91590276791596

>  <distance_score>  (1172) 
0.5343860823394185

>  <path>  (1172) 
/opt/xchem-fragalysis-2/maxwin/BulkDock/SCRATCH/511017/C28077-P2/C28077-P2.minimised.mol

>  <scratch_subdir>  (1172) 
/opt/xchem-fragalysis-2/maxwin/BulkDock/SCRATCH/511017/C28077-P2

>  <fragmenstein_runtime>  (1172) 
2.056535482406616

>  <fragmenstein_outcome>  (1172) 
acceptable

>  <fragmenstein_mode>  (1172) 
expansion

>  <fragmenstein_error>  (1172) 


$$$$
C28078-P48
     RDKit          3D

 39 41  0  0  0  0  0  0  0  0999 V2000
  -14.0157  -24.3880    8.9337 C   0  0  0  0  0  0  0  0  0  0  0  0
  -12.9321  -25.4117    8.7813 C   0  0  0  0  0  0  0  0  0  0  0  0
  -12.5457  -26.1933    9.8647 C   0  0  0  0  0  0  0  0  0  0  0  0
  -11.6029  -27.1978    9.6673 C   0  0  0  0  0  0  0  0  0  0  0  0
  -11.0623  -27.3928    8.4021 C   0  0  0  0  0  0  0  0  0  0  0  0
  -11.4815  -26.5612    7.3769 C   0  0  0  0  0  0  0  0  0  0  0  0
  -10.8629  -26.6989    6.0071 C   0  0  0  0  0  0  0  0  0  0  0  0
  -11.5614  -26.7942    5.0760 O   0  0  0  0  0  0  0  0  0  0  0  0
   -9.3177  -26.5941    6.0976 N   0  0  0  0  0  0  0  0  0  0  0  0
   -8.3182  -26.4885    5.0520 C   0  0  0  0  0  0  0  0  0  0  0  0
   -7.4291  -25.2146    5.1523 C   0  0  0  0  0  0  0  0  0  0  0  0
   -6.4797  -25.3056    6.3512 C   0  0  0  0  0  0  0  0  0  0  0  0
   -8.2073  -23.9607    5.2277 C   0  0  0  0  0  0  0  0  0  0  0  0
   -7.9181  -22.7538    4.7793 N   0  0  0  0  0  0  0  0  0  0  0  0
   -9.0421  -22.0456    5.0956 C   0  0  0  0  0  0  0  0  0  0  0  0
   -9.3509  -20.7043    4.9110 C   0  0  0  0  0  0  0  0  0  0  0  0
  -10.6268  -20.3153    5.2912 C   0  0  0  0  0  0  0  0  0  0  0  0
  -11.5287  -21.2160    5.8781 C   0  0  0  0  0  0  0  0  0  0  0  0
  -11.1876  -22.5122    6.2043 C   0  0  0  0  0  0  0  0  0  0  0  0
   -9.9426  -22.8611    5.7531 C   0  0  0  0  0  0  0  0  0  0  0  0
   -9.3875  -24.0692    5.8775 O   0  0  0  0  0  0  0  0  0  0  0  0
  -12.4201  -25.5872    7.5417 N   0  0  0  0  0  0  0  0  0  0  0  0
  -13.9423  -23.8849    9.9020 H   0  0  0  0  0  0  0  0  0  0  0  0
  -13.9427  -23.6263    8.1511 H   0  0  0  0  0  0  0  0  0  0  0  0
  -14.9948  -24.8710    8.8606 H   0  0  0  0  0  0  0  0  0  0  0  0
  -12.9882  -26.0436   10.8447 H   0  0  0  0  0  0  0  0  0  0  0  0
  -11.2994  -27.8318   10.4962 H   0  0  0  0  0  0  0  0  0  0  0  0
  -10.3379  -28.1799    8.2268 H   0  0  0  0  0  0  0  0  0  0  0  0
   -9.0340  -26.6071    7.0697 H   0  0  0  0  0  0  0  0  0  0  0  0
   -7.7020  -27.3924    5.0960 H   0  0  0  0  0  0  0  0  0  0  0  0
   -8.8530  -26.4896    4.0955 H   0  0  0  0  0  0  0  0  0  0  0  0
   -6.8116  -25.1810    4.2455 H   0  0  0  0  0  0  0  0  0  0  0  0
   -5.8718  -26.2150    6.2987 H   0  0  0  0  0  0  0  0  0  0  0  0
   -7.0244  -25.3141    7.3022 H   0  0  0  0  0  0  0  0  0  0  0  0
   -5.7971  -24.4482    6.3741 H   0  0  0  0  0  0  0  0  0  0  0  0
   -8.6681  -20.0253    4.4192 H   0  0  0  0  0  0  0  0  0  0  0  0
  -10.9550  -19.3106    5.0287 H   0  0  0  0  0  0  0  0  0  0  0  0
  -12.5666  -20.9244    5.9828 H   0  0  0  0  0  0  0  0  0  0  0  0
  -11.8606  -23.2213    6.6591 H   0  0  0  0  0  0  0  0  0  0  0  0
  1  2  1  0
  2  3  2  0
  3  4  1  0
  4  5  2  0
  5  6  1  0
  6  7  1  0
  7  8  2  0
  7  9  1  0
  9 10  1  0
 10 11  1  0
 11 12  1  0
 11 13  1  0
 13 14  2  0
 14 15  1  0
 15 16  2  0
 16 17  1  0
 17 18  2  0
 18 19  1  0
 19 20  2  0
 20 21  1  0
  6 22  2  0
 22  2  1  0
 21 13  1  0
 20 15  1  0
  1 23  1  0
  1 24  1  0
  1 25  1  0
  3 26  1  0
  4 27  1  0
  5 28  1  0
  9 29  1  0
 10 30  1  0
 10 31  1  0
 11 32  1  0
 12 33  1  0
 12 34  1  0
 12 35  1  0
 16 36  1  0
 17 37  1  0
 18 38  1  0
 19 39  1  0
M  END
>  <Energy>  (1173) 
101.16825387766862

>  <compound_id>  (1173) 
28078

>  <target_id>  (1173) 
1

>  <reference_id>  (1173) 
48

>  <inspiration_ids>  (1173) 
[48, 2]

>  <energy_score>  (1173) 
9.105256643045784

>  <distance_score>  (1173) 
2.974956020174925

>  <path>  (1173) 
/opt/xchem-fragalysis-2/maxwin/BulkDock/SCRATCH/511017/C28078-P48/C28078-P48.minimised.mol

>  <scratch_subdir>  (1173) 
/opt/xchem-fragalysis-2/maxwin/BulkDock/SCRATCH/511017/C28078-P48

>  <fragmenstein_runtime>  (1173) 
1.7608394622802734

>  <fragmenstein_outcome>  (1173) 
too moved

>  <fragmenstein_mode>  (1173) 
expansion

>  <fragmenstein_error>  (1173) 


$$$$
C28078-P2
     RDKit          3D

 39 41  0  0  0  0  0  0  0  0999 V2000
  -11.7744  -24.4250   10.3833 C   0  0  0  0  0  0  0  0  0  0  0  0
  -12.1045  -25.4590    9.3546 C   0  0  0  0  0  0  0  0  0  0  0  0
  -12.2964  -26.7748    9.7612 C   0  0  0  0  0  0  0  0  0  0  0  0
  -12.5223  -27.7516    8.7981 C   0  0  0  0  0  0  0  0  0  0  0  0
  -12.5381  -27.3986    7.4548 C   0  0  0  0  0  0  0  0  0  0  0  0
  -12.3371  -26.0674    7.1300 C   0  0  0  0  0  0  0  0  0  0  0  0
  -12.1942  -25.6672    5.6785 C   0  0  0  0  0  0  0  0  0  0  0  0
  -12.3198  -26.4441    4.8216 O   0  0  0  0  0  0  0  0  0  0  0  0
  -11.7827  -24.1919    5.6297 N   0  0  0  0  0  0  0  0  0  0  0  0
  -11.3436  -23.3768    4.5226 C   0  0  0  0  0  0  0  0  0  0  0  0
   -9.8168  -23.1409    4.5612 C   0  0  0  0  0  0  0  0  0  0  0  0
   -9.0378  -24.3791    4.1173 C   0  0  0  0  0  0  0  0  0  0  0  0
   -9.4364  -22.6818    5.9321 C   0  0  0  0  0  0  0  0  0  0  0  0
   -9.6118  -21.4827    6.4530 N   0  0  0  0  0  0  0  0  0  0  0  0
   -9.3111  -21.6655    7.7762 C   0  0  0  0  0  0  0  0  0  0  0  0
   -9.2837  -20.7604    8.8347 C   0  0  0  0  0  0  0  0  0  0  0  0
   -8.8466  -21.2196   10.0862 C   0  0  0  0  0  0  0  0  0  0  0  0
   -8.5078  -22.5617   10.2884 C   0  0  0  0  0  0  0  0  0  0  0  0
   -8.5624  -23.4899    9.2426 C   0  0  0  0  0  0  0  0  0  0  0  0
   -8.9516  -22.9806    8.0111 C   0  0  0  0  0  0  0  0  0  0  0  0
   -9.0191  -23.6413    6.8227 O   0  0  0  0  0  0  0  0  0  0  0  0
  -12.1418  -25.0784    8.0560 N   0  0  0  0  0  0  0  0  0  0  0  0
  -10.8242  -24.6657   10.8690 H   0  0  0  0  0  0  0  0  0  0  0  0
  -11.6867  -23.4385    9.9206 H   0  0  0  0  0  0  0  0  0  0  0  0
  -12.5572  -24.3966   11.1462 H   0  0  0  0  0  0  0  0  0  0  0  0
  -12.2553  -27.0452   10.8121 H   0  0  0  0  0  0  0  0  0  0  0  0
  -12.6666  -28.7881    9.0913 H   0  0  0  0  0  0  0  0  0  0  0  0
  -12.6753  -28.1469    6.6810 H   0  0  0  0  0  0  0  0  0  0  0  0
  -11.8555  -23.7868    6.5651 H   0  0  0  0  0  0  0  0  0  0  0  0
  -11.6411  -23.8618    3.5874 H   0  0  0  0  0  0  0  0  0  0  0  0
  -11.8776  -22.4237    4.6055 H   0  0  0  0  0  0  0  0  0  0  0  0
   -9.5823  -22.3362    3.8529 H   0  0  0  0  0  0  0  0  0  0  0  0
   -9.3047  -24.6544    3.0913 H   0  0  0  0  0  0  0  0  0  0  0  0
   -9.2376  -25.2451    4.7578 H   0  0  0  0  0  0  0  0  0  0  0  0
   -7.9588  -24.1900    4.1438 H   0  0  0  0  0  0  0  0  0  0  0  0
   -9.5513  -19.7297    8.6520 H   0  0  0  0  0  0  0  0  0  0  0  0
   -8.7423  -20.5194   10.9121 H   0  0  0  0  0  0  0  0  0  0  0  0
   -8.1454  -22.8738   11.2665 H   0  0  0  0  0  0  0  0  0  0  0  0
   -8.2731  -24.5245    9.3693 H   0  0  0  0  0  0  0  0  0  0  0  0
  1  2  1  0
  2  3  2  0
  3  4  1  0
  4  5  2  0
  5  6  1  0
  6  7  1  0
  7  8  2  0
  7  9  1  0
  9 10  1  0
 10 11  1  0
 11 12  1  0
 11 13  1  0
 13 14  2  0
 14 15  1  0
 15 16  2  0
 16 17  1  0
 17 18  2  0
 18 19  1  0
 19 20  2  0
 20 21  1  0
  6 22  2  0
 22  2  1  0
 21 13  1  0
 20 15  1  0
  1 23  1  0
  1 24  1  0
  1 25  1  0
  3 26  1  0
  4 27  1  0
  5 28  1  0
  9 29  1  0
 10 30  1  0
 10 31  1  0
 11 32  1  0
 12 33  1  0
 12 34  1  0
 12 35  1  0
 16 36  1  0
 17 37  1  0
 18 38  1  0
 19 39  1  0
M  END
>  <Energy>  (1174) 
77.841557318022566

>  <compound_id>  (1174) 
28078

>  <target_id>  (1174) 
1

>  <reference_id>  (1174) 
2

>  <inspiration_ids>  (1174) 
[48, 2]

>  <energy_score>  (1174) 
-14.221439916599266

>  <distance_score>  (1174) 
0.8025978028398397

>  <path>  (1174) 
/opt/xchem-fragalysis-2/maxwin/BulkDock/SCRATCH/511017/C28078-P2/C28078-P2.minimised.mol

>  <scratch_subdir>  (1174) 
/opt/xchem-fragalysis-2/maxwin/BulkDock/SCRATCH/511017/C28078-P2

>  <fragmenstein_runtime>  (1174) 
1.9023518562316895

>  <fragmenstein_outcome>  (1174) 
acceptable

>  <fragmenstein_mode>  (1174) 
expansion

>  <fragmenstein_error>  (1174) 


$$$$
C28079-P48
     RDKit          3D

 40 42  0  0  0  0  0  0  0  0999 V2000
  -14.9705  -23.1103    8.4150 C   0  0  0  0  0  0  0  0  0  0  0  0
  -14.1543  -23.7920    9.3636 O   0  0  0  0  0  0  0  0  0  0  0  0
  -13.4017  -24.7922    8.7808 C   0  0  0  0  0  0  0  0  0  0  0  0
  -12.9817  -25.8135    9.6237 C   0  0  0  0  0  0  0  0  0  0  0  0
  -12.3084  -26.8953    9.0688 C   0  0  0  0  0  0  0  0  0  0  0  0
  -12.0647  -26.9043    7.7010 C   0  0  0  0  0  0  0  0  0  0  0  0
  -12.4774  -25.8084    6.9469 C   0  0  0  0  0  0  0  0  0  0  0  0
  -12.0191  -25.7304    5.5171 C   0  0  0  0  0  0  0  0  0  0  0  0
  -11.8864  -26.7081    4.8959 O   0  0  0  0  0  0  0  0  0  0  0  0
  -11.7012  -24.2687    5.1567 N   0  0  0  0  0  0  0  0  0  0  0  0
  -11.0637  -23.7092    3.9917 C   0  0  0  0  0  0  0  0  0  0  0  0
   -9.6938  -23.0404    4.3122 C   0  0  0  0  0  0  0  0  0  0  0  0
   -9.9232  -21.5951    4.7695 C   0  0  0  0  0  0  0  0  0  0  0  0
   -8.8987  -23.7819    5.3481 C   0  0  0  0  0  0  0  0  0  0  0  0
   -9.3386  -24.6394    6.2436 N   0  0  0  0  0  0  0  0  0  0  0  0
   -8.2989  -24.8014    7.1039 C   0  0  0  0  0  0  0  0  0  0  0  0
   -8.2302  -25.4442    8.3472 C   0  0  0  0  0  0  0  0  0  0  0  0
   -7.0644  -25.3037    9.1092 C   0  0  0  0  0  0  0  0  0  0  0  0
   -5.9589  -24.6277    8.5937 C   0  0  0  0  0  0  0  0  0  0  0  0
   -5.9857  -24.0625    7.3097 C   0  0  0  0  0  0  0  0  0  0  0  0
   -7.1983  -24.1185    6.6347 C   0  0  0  0  0  0  0  0  0  0  0  0
   -7.5665  -23.4671    5.4845 O   0  0  0  0  0  0  0  0  0  0  0  0
  -13.1351  -24.7340    7.4598 N   0  0  0  0  0  0  0  0  0  0  0  0
  -14.3637  -22.5353    7.7084 H   0  0  0  0  0  0  0  0  0  0  0  0
  -15.6301  -23.8068    7.8853 H   0  0  0  0  0  0  0  0  0  0  0  0
  -15.6018  -22.4052    8.9642 H   0  0  0  0  0  0  0  0  0  0  0  0
  -13.2120  -25.7813   10.6828 H   0  0  0  0  0  0  0  0  0  0  0  0
  -11.9790  -27.7212    9.6920 H   0  0  0  0  0  0  0  0  0  0  0  0
  -11.5149  -27.7168    7.2357 H   0  0  0  0  0  0  0  0  0  0  0  0
  -11.8647  -23.6754    5.9684 H   0  0  0  0  0  0  0  0  0  0  0  0
  -11.7580  -23.0047    3.5234 H   0  0  0  0  0  0  0  0  0  0  0  0
  -10.9007  -24.5379    3.2933 H   0  0  0  0  0  0  0  0  0  0  0  0
   -9.1140  -23.0044    3.3813 H   0  0  0  0  0  0  0  0  0  0  0  0
  -10.4756  -21.5535    5.7151 H   0  0  0  0  0  0  0  0  0  0  0  0
  -10.4918  -21.0341    4.0200 H   0  0  0  0  0  0  0  0  0  0  0  0
   -8.9711  -21.0734    4.9142 H   0  0  0  0  0  0  0  0  0  0  0  0
   -9.0971  -25.9632    8.7356 H   0  0  0  0  0  0  0  0  0  0  0  0
   -7.0144  -25.7432   10.1017 H   0  0  0  0  0  0  0  0  0  0  0  0
   -5.0543  -24.5453    9.1928 H   0  0  0  0  0  0  0  0  0  0  0  0
   -5.1366  -23.5293    6.9025 H   0  0  0  0  0  0  0  0  0  0  0  0
  1  2  1  0
  2  3  1  0
  3  4  2  0
  4  5  1  0
  5  6  2  0
  6  7  1  0
  7  8  1  0
  8  9  2  0
  8 10  1  0
 10 11  1  0
 11 12  1  0
 12 13  1  0
 12 14  1  0
 14 15  2  0
 15 16  1  0
 16 17  2  0
 17 18  1  0
 18 19  2  0
 19 20  1  0
 20 21  2  0
 21 22  1  0
  7 23  2  0
 23  3  1  0
 22 14  1  0
 21 16  1  0
  1 24  1  0
  1 25  1  0
  1 26  1  0
  4 27  1  0
  5 28  1  0
  6 29  1  0
 10 30  1  0
 11 31  1  0
 11 32  1  0
 12 33  1  0
 13 34  1  0
 13 35  1  0
 13 36  1  0
 17 37  1  0
 18 38  1  0
 19 39  1  0
 20 40  1  0
M  END
>  <Energy>  (1175) 
69.548920478781241

>  <compound_id>  (1175) 
28079

>  <target_id>  (1175) 
1

>  <reference_id>  (1175) 
48

>  <inspiration_ids>  (1175) 
[48, 2]

>  <energy_score>  (1175) 
3.768240814910378

>  <distance_score>  (1175) 
2.7020195073648385

>  <path>  (1175) 
/opt/xchem-fragalysis-2/maxwin/BulkDock/SCRATCH/511017/C28079-P48/C28079-P48.minimised.mol

>  <scratch_subdir>  (1175) 
/opt/xchem-fragalysis-2/maxwin/BulkDock/SCRATCH/511017/C28079-P48

>  <fragmenstein_runtime>  (1175) 
2.3446362018585205

>  <fragmenstein_outcome>  (1175) 
too moved

>  <fragmenstein_mode>  (1175) 
expansion

>  <fragmenstein_error>  (1175) 


$$$$
C28079-P2
     RDKit          3D

 40 42  0  0  0  0  0  0  0  0999 V2000
  -14.6925  -23.2680    8.5079 C   0  0  0  0  0  0  0  0  0  0  0  0
  -14.0989  -24.1136    9.4891 O   0  0  0  0  0  0  0  0  0  0  0  0
  -13.2478  -25.0534    8.9464 C   0  0  0  0  0  0  0  0  0  0  0  0
  -12.8933  -26.1113    9.7704 C   0  0  0  0  0  0  0  0  0  0  0  0
  -12.0958  -27.1245    9.2476 C   0  0  0  0  0  0  0  0  0  0  0  0
  -11.6626  -27.0348    7.9305 C   0  0  0  0  0  0  0  0  0  0  0  0
  -12.0315  -25.9156    7.1964 C   0  0  0  0  0  0  0  0  0  0  0  0
  -11.4136  -25.6876    5.8397 C   0  0  0  0  0  0  0  0  0  0  0  0
  -10.7933  -26.5240    5.3192 O   0  0  0  0  0  0  0  0  0  0  0  0
  -11.6733  -24.2337    5.4201 N   0  0  0  0  0  0  0  0  0  0  0  0
  -11.1467  -23.4685    4.3170 C   0  0  0  0  0  0  0  0  0  0  0  0
   -9.6394  -23.1961    4.5108 C   0  0  0  0  0  0  0  0  0  0  0  0
   -9.1253  -22.2061    3.4703 C   0  0  0  0  0  0  0  0  0  0  0  0
   -9.3903  -22.7055    5.9009 C   0  0  0  0  0  0  0  0  0  0  0  0
   -9.5810  -21.5017    6.4054 N   0  0  0  0  0  0  0  0  0  0  0  0
   -9.3192  -21.6744    7.7403 C   0  0  0  0  0  0  0  0  0  0  0  0
   -9.2908  -20.7566    8.7888 C   0  0  0  0  0  0  0  0  0  0  0  0
   -8.8903  -21.2125   10.0545 C   0  0  0  0  0  0  0  0  0  0  0  0
   -8.6008  -22.5620   10.2833 C   0  0  0  0  0  0  0  0  0  0  0  0
   -8.6600  -23.5016    9.2492 C   0  0  0  0  0  0  0  0  0  0  0  0
   -8.9945  -22.9942    8.0005 C   0  0  0  0  0  0  0  0  0  0  0  0
   -9.0221  -23.6629    6.8152 O   0  0  0  0  0  0  0  0  0  0  0  0
  -12.8181  -24.9098    7.6778 N   0  0  0  0  0  0  0  0  0  0  0  0
  -13.9397  -22.6412    8.0189 H   0  0  0  0  0  0  0  0  0  0  0  0
  -15.2556  -23.8505    7.7703 H   0  0  0  0  0  0  0  0  0  0  0  0
  -15.3971  -22.6057    9.0199 H   0  0  0  0  0  0  0  0  0  0  0  0
  -13.2584  -26.1591   10.7907 H   0  0  0  0  0  0  0  0  0  0  0  0
  -11.8125  -27.9738    9.8630 H   0  0  0  0  0  0  0  0  0  0  0  0
  -11.0157  -27.7940    7.5023 H   0  0  0  0  0  0  0  0  0  0  0  0
  -12.1950  -23.7554    6.1553 H   0  0  0  0  0  0  0  0  0  0  0  0
  -11.7217  -22.5377    4.2644 H   0  0  0  0  0  0  0  0  0  0  0  0
  -11.3088  -24.0401    3.3975 H   0  0  0  0  0  0  0  0  0  0  0  0
   -9.0949  -24.1408    4.3800 H   0  0  0  0  0  0  0  0  0  0  0  0
   -9.6374  -21.2399    3.5443 H   0  0  0  0  0  0  0  0  0  0  0  0
   -9.2804  -22.5934    2.4577 H   0  0  0  0  0  0  0  0  0  0  0  0
   -8.0529  -22.0227    3.6012 H   0  0  0  0  0  0  0  0  0  0  0  0
   -9.5210  -19.7197    8.5895 H   0  0  0  0  0  0  0  0  0  0  0  0
   -8.7830  -20.5060   10.8747 H   0  0  0  0  0  0  0  0  0  0  0  0
   -8.2758  -22.8729   11.2748 H   0  0  0  0  0  0  0  0  0  0  0  0
   -8.4014  -24.5416    9.3959 H   0  0  0  0  0  0  0  0  0  0  0  0
  1  2  1  0
  2  3  1  0
  3  4  2  0
  4  5  1  0
  5  6  2  0
  6  7  1  0
  7  8  1  0
  8  9  2  0
  8 10  1  0
 10 11  1  0
 11 12  1  0
 12 13  1  0
 12 14  1  0
 14 15  2  0
 15 16  1  0
 16 17  2  0
 17 18  1  0
 18 19  2  0
 19 20  1  0
 20 21  2  0
 21 22  1  0
  7 23  2  0
 23  3  1  0
 22 14  1  0
 21 16  1  0
  1 24  1  0
  1 25  1  0
  1 26  1  0
  4 27  1  0
  5 28  1  0
  6 29  1  0
 10 30  1  0
 11 31  1  0
 11 32  1  0
 12 33  1  0
 13 34  1  0
 13 35  1  0
 13 36  1  0
 17 37  1  0
 18 38  1  0
 19 39  1  0
 20 40  1  0
M  END
>  <Energy>  (1176) 
57.430495663481146

>  <compound_id>  (1176) 
28079

>  <target_id>  (1176) 
1

>  <reference_id>  (1176) 
2

>  <inspiration_ids>  (1176) 
[48, 2]

>  <energy_score>  (1176) 
-8.350184000388225

>  <distance_score>  (1176) 
0.705395924928183

>  <path>  (1176) 
/opt/xchem-fragalysis-2/maxwin/BulkDock/SCRATCH/511017/C28079-P2/C28079-P2.minimised.mol

>  <scratch_subdir>  (1176) 
/opt/xchem-fragalysis-2/maxwin/BulkDock/SCRATCH/511017/C28079-P2

>  <fragmenstein_runtime>  (1176) 
1.473294973373413

>  <fragmenstein_outcome>  (1176) 
acceptable

>  <fragmenstein_mode>  (1176) 
expansion

>  <fragmenstein_error>  (1176) 


$$$$
C28080-P48
     RDKit          3D

 42 44  0  0  0  0  0  0  0  0999 V2000
  -16.2719  -23.0163    6.4088 C   0  0  0  0  0  0  0  0  0  0  0  0
  -15.3195  -24.0517    6.1680 O   0  0  0  0  0  0  0  0  0  0  0  0
  -15.2305  -24.9726    7.1621 C   0  0  0  0  0  0  0  0  0  0  0  0
  -15.8891  -24.9780    8.1925 O   0  0  0  0  0  0  0  0  0  0  0  0
  -14.1802  -25.9894    6.8468 C   0  0  0  0  0  0  0  0  0  0  0  0
  -13.9482  -27.0114    7.7695 C   0  0  0  0  0  0  0  0  0  0  0  0
  -12.9544  -27.9429    7.4899 C   0  0  0  0  0  0  0  0  0  0  0  0
  -12.2259  -27.8207    6.3083 C   0  0  0  0  0  0  0  0  0  0  0  0
  -12.4992  -26.7552    5.4523 C   0  0  0  0  0  0  0  0  0  0  0  0
  -11.5566  -26.4772    4.2903 C   0  0  0  0  0  0  0  0  0  0  0  0
  -10.7909  -27.2891    3.9533 O   0  0  0  0  0  0  0  0  0  0  0  0
  -11.7506  -25.0270    3.8089 N   0  0  0  0  0  0  0  0  0  0  0  0
  -10.9756  -24.2315    2.8706 C   0  0  0  0  0  0  0  0  0  0  0  0
   -9.6830  -23.6148    3.5088 C   0  0  0  0  0  0  0  0  0  0  0  0
   -9.2922  -22.3104    2.8260 C   0  0  0  0  0  0  0  0  0  0  0  0
   -9.9025  -23.4287    4.9718 C   0  0  0  0  0  0  0  0  0  0  0  0
  -10.8270  -22.6763    5.5432 N   0  0  0  0  0  0  0  0  0  0  0  0
  -11.1430  -23.4058    6.6619 C   0  0  0  0  0  0  0  0  0  0  0  0
  -12.1512  -23.2399    7.6226 C   0  0  0  0  0  0  0  0  0  0  0  0
  -12.2193  -24.1594    8.6905 C   0  0  0  0  0  0  0  0  0  0  0  0
  -11.3250  -25.2428    8.7828 C   0  0  0  0  0  0  0  0  0  0  0  0
  -10.3310  -25.4467    7.8104 C   0  0  0  0  0  0  0  0  0  0  0  0
  -10.2892  -24.4993    6.7830 C   0  0  0  0  0  0  0  0  0  0  0  0
   -9.4260  -24.4626    5.7357 O   0  0  0  0  0  0  0  0  0  0  0  0
  -13.4575  -25.8227    5.7064 N   0  0  0  0  0  0  0  0  0  0  0  0
  -16.2547  -22.3341    5.5545 H   0  0  0  0  0  0  0  0  0  0  0  0
  -17.2789  -23.4352    6.4990 H   0  0  0  0  0  0  0  0  0  0  0  0
  -16.0042  -22.4519    7.3078 H   0  0  0  0  0  0  0  0  0  0  0  0
  -14.5340  -27.0825    8.6810 H   0  0  0  0  0  0  0  0  0  0  0  0
  -12.7448  -28.7534    8.1825 H   0  0  0  0  0  0  0  0  0  0  0  0
  -11.4225  -28.5154    6.0795 H   0  0  0  0  0  0  0  0  0  0  0  0
  -12.4642  -24.5706    4.3808 H   0  0  0  0  0  0  0  0  0  0  0  0
  -11.6448  -23.4430    2.5097 H   0  0  0  0  0  0  0  0  0  0  0  0
  -10.6982  -24.8675    2.0237 H   0  0  0  0  0  0  0  0  0  0  0  0
   -8.8655  -24.3346    3.3695 H   0  0  0  0  0  0  0  0  0  0  0  0
   -9.1196  -22.4703    1.7565 H   0  0  0  0  0  0  0  0  0  0  0  0
   -8.3725  -21.9025    3.2602 H   0  0  0  0  0  0  0  0  0  0  0  0
  -10.0731  -21.5490    2.9330 H   0  0  0  0  0  0  0  0  0  0  0  0
  -12.8765  -22.4524    7.5129 H   0  0  0  0  0  0  0  0  0  0  0  0
  -13.0019  -24.0532    9.4391 H   0  0  0  0  0  0  0  0  0  0  0  0
  -11.4049  -25.9378    9.6158 H   0  0  0  0  0  0  0  0  0  0  0  0
   -9.6214  -26.2615    7.8550 H   0  0  0  0  0  0  0  0  0  0  0  0
  1  2  1  0
  2  3  1  0
  3  4  2  0
  3  5  1  0
  5  6  2  0
  6  7  1  0
  7  8  2  0
  8  9  1  0
  9 10  1  0
 10 11  2  0
 10 12  1  0
 12 13  1  0
 13 14  1  0
 14 15  1  0
 14 16  1  0
 16 17  2  0
 17 18  1  0
 18 19  2  0
 19 20  1  0
 20 21  2  0
 21 22  1  0
 22 23  2  0
 23 24  1  0
  9 25  2  0
 25  5  1  0
 24 16  1  0
 23 18  1  0
  1 26  1  0
  1 27  1  0
  1 28  1  0
  6 29  1  0
  7 30  1  0
  8 31  1  0
 12 32  1  0
 13 33  1  0
 13 34  1  0
 14 35  1  0
 15 36  1  0
 15 37  1  0
 15 38  1  0
 19 39  1  0
 20 40  1  0
 21 41  1  0
 22 42  1  0
M  END
>  <Energy>  (1177) 
121.43908676377839

>  <compound_id>  (1177) 
28080

>  <target_id>  (1177) 
1

>  <reference_id>  (1177) 
48

>  <inspiration_ids>  (1177) 
[48, 2]

>  <energy_score>  (1177) 
-10.953594466986395

>  <distance_score>  (1177) 
3.3318796987565733

>  <path>  (1177) 
/opt/xchem-fragalysis-2/maxwin/BulkDock/SCRATCH/511017/C28080-P48/C28080-P48.minimised.mol

>  <scratch_subdir>  (1177) 
/opt/xchem-fragalysis-2/maxwin/BulkDock/SCRATCH/511017/C28080-P48

>  <fragmenstein_runtime>  (1177) 
2.0458812713623047

>  <fragmenstein_outcome>  (1177) 
too moved

>  <fragmenstein_mode>  (1177) 
expansion

>  <fragmenstein_error>  (1177) 


$$$$
C28080-P2
     RDKit          3D

 42 44  0  0  0  0  0  0  0  0999 V2000
  -16.3797  -23.2727    9.9378 C   0  0  0  0  0  0  0  0  0  0  0  0
  -15.3324  -24.2274    9.7427 O   0  0  0  0  0  0  0  0  0  0  0  0
  -14.3461  -23.8148    8.9046 C   0  0  0  0  0  0  0  0  0  0  0  0
  -14.2321  -22.6998    8.4183 O   0  0  0  0  0  0  0  0  0  0  0  0
  -13.4244  -24.9495    8.6030 C   0  0  0  0  0  0  0  0  0  0  0  0
  -13.2383  -26.0165    9.4784 C   0  0  0  0  0  0  0  0  0  0  0  0
  -12.3903  -27.0546    9.0929 C   0  0  0  0  0  0  0  0  0  0  0  0
  -11.7547  -26.9967    7.8566 C   0  0  0  0  0  0  0  0  0  0  0  0
  -11.9770  -25.8841    7.0598 C   0  0  0  0  0  0  0  0  0  0  0  0
  -11.2106  -25.6977    5.7760 C   0  0  0  0  0  0  0  0  0  0  0  0
  -10.4943  -26.5261    5.3804 O   0  0  0  0  0  0  0  0  0  0  0  0
  -11.4851  -24.2811    5.2460 N   0  0  0  0  0  0  0  0  0  0  0  0
  -10.8661  -23.5475    4.1716 C   0  0  0  0  0  0  0  0  0  0  0  0
   -9.3913  -23.2365    4.4917 C   0  0  0  0  0  0  0  0  0  0  0  0
   -8.8133  -22.2401    3.4910 C   0  0  0  0  0  0  0  0  0  0  0  0
   -9.2592  -22.7376    5.8953 C   0  0  0  0  0  0  0  0  0  0  0  0
   -9.4827  -21.5315    6.3810 N   0  0  0  0  0  0  0  0  0  0  0  0
   -9.2807  -21.6909    7.7288 C   0  0  0  0  0  0  0  0  0  0  0  0
   -9.2892  -20.7626    8.7692 C   0  0  0  0  0  0  0  0  0  0  0  0
   -8.9163  -21.2037   10.0491 C   0  0  0  0  0  0  0  0  0  0  0  0
   -8.6264  -22.5490   10.3009 C   0  0  0  0  0  0  0  0  0  0  0  0
   -8.6573  -23.4998    9.2766 C   0  0  0  0  0  0  0  0  0  0  0  0
   -8.9575  -23.0061    8.0137 C   0  0  0  0  0  0  0  0  0  0  0  0
   -8.9324  -23.6856    6.8350 O   0  0  0  0  0  0  0  0  0  0  0  0
  -12.7880  -24.8515    7.4126 N   0  0  0  0  0  0  0  0  0  0  0  0
  -17.0692  -23.3132    9.0896 H   0  0  0  0  0  0  0  0  0  0  0  0
  -16.9240  -23.5492   10.8449 H   0  0  0  0  0  0  0  0  0  0  0  0
  -15.9953  -22.2570   10.0635 H   0  0  0  0  0  0  0  0  0  0  0  0
  -13.7502  -26.0547   10.4346 H   0  0  0  0  0  0  0  0  0  0  0  0
  -12.2288  -27.9051    9.7509 H   0  0  0  0  0  0  0  0  0  0  0  0
  -11.0778  -27.7828    7.5362 H   0  0  0  0  0  0  0  0  0  0  0  0
  -12.1140  -23.7927    5.8877 H   0  0  0  0  0  0  0  0  0  0  0  0
  -11.4489  -22.6309    4.0303 H   0  0  0  0  0  0  0  0  0  0  0  0
  -10.9329  -24.1532    3.2621 H   0  0  0  0  0  0  0  0  0  0  0  0
   -8.8163  -24.1688    4.4098 H   0  0  0  0  0  0  0  0  0  0  0  0
   -7.7588  -22.0351    3.7077 H   0  0  0  0  0  0  0  0  0  0  0  0
   -9.3483  -21.2840    3.5184 H   0  0  0  0  0  0  0  0  0  0  0  0
   -8.8778  -22.6339    2.4712 H   0  0  0  0  0  0  0  0  0  0  0  0
   -9.5151  -19.7276    8.5542 H   0  0  0  0  0  0  0  0  0  0  0  0
   -8.8309  -20.4874   10.8633 H   0  0  0  0  0  0  0  0  0  0  0  0
   -8.3212  -22.8465   11.3025 H   0  0  0  0  0  0  0  0  0  0  0  0
   -8.3914  -24.5356    9.4390 H   0  0  0  0  0  0  0  0  0  0  0  0
  1  2  1  0
  2  3  1  0
  3  4  2  0
  3  5  1  0
  5  6  2  0
  6  7  1  0
  7  8  2  0
  8  9  1  0
  9 10  1  0
 10 11  2  0
 10 12  1  0
 12 13  1  0
 13 14  1  0
 14 15  1  0
 14 16  1  0
 16 17  2  0
 17 18  1  0
 18 19  2  0
 19 20  1  0
 20 21  2  0
 21 22  1  0
 22 23  2  0
 23 24  1  0
  9 25  2  0
 25  5  1  0
 24 16  1  0
 23 18  1  0
  1 26  1  0
  1 27  1  0
  1 28  1  0
  6 29  1  0
  7 30  1  0
  8 31  1  0
 12 32  1  0
 13 33  1  0
 13 34  1  0
 14 35  1  0
 15 36  1  0
 15 37  1  0
 15 38  1  0
 19 39  1  0
 20 40  1  0
 21 41  1  0
 22 42  1  0
M  END
>  <Energy>  (1178) 
112.92874734715198

>  <compound_id>  (1178) 
28080

>  <target_id>  (1178) 
1

>  <reference_id>  (1178) 
2

>  <inspiration_ids>  (1178) 
[48, 2]

>  <energy_score>  (1178) 
-19.46393388361186

>  <distance_score>  (1178) 
1.4465585821918732

>  <path>  (1178) 
/opt/xchem-fragalysis-2/maxwin/BulkDock/SCRATCH/511017/C28080-P2/C28080-P2.minimised.mol

>  <scratch_subdir>  (1178) 
/opt/xchem-fragalysis-2/maxwin/BulkDock/SCRATCH/511017/C28080-P2

>  <fragmenstein_runtime>  (1178) 
2.2533276081085205

>  <fragmenstein_outcome>  (1178) 
too moved

>  <fragmenstein_mode>  (1178) 
expansion

>  <fragmenstein_error>  (1178) 


$$$$
C28081-P48
     RDKit          3D

 37 39  0  0  0  0  0  0  0  0999 V2000
   -8.0519  -23.1026    2.6927 C   0  0  0  0  0  0  0  0  0  0  0  0
   -8.6506  -24.1672    3.6040 C   0  0  0  0  0  0  0  0  0  0  0  0
   -9.7905  -24.9573    2.8772 C   0  0  0  0  0  0  0  0  0  0  0  0
  -10.6848  -25.6615    3.7835 N   0  0  0  0  0  0  0  0  0  0  0  0
  -10.4829  -26.9703    4.5746 C   0  0  0  0  0  0  0  0  0  0  0  0
   -9.5982  -27.7306    4.5651 O   0  0  0  0  0  0  0  0  0  0  0  0
  -11.6304  -27.1506    5.5593 C   0  0  0  0  0  0  0  0  0  0  0  0
  -11.4578  -27.9842    6.6650 C   0  0  0  0  0  0  0  0  0  0  0  0
  -12.4467  -27.9873    7.6344 C   0  0  0  0  0  0  0  0  0  0  0  0
  -12.3518  -28.7593    8.7529 O   0  0  0  0  0  0  0  0  0  0  0  0
  -13.5690  -27.1907    7.4871 C   0  0  0  0  0  0  0  0  0  0  0  0
  -13.6561  -26.3843    6.3641 C   0  0  0  0  0  0  0  0  0  0  0  0
  -12.7076  -26.3244    5.4046 N   0  0  0  0  0  0  0  0  0  0  0  0
   -9.1716  -23.5888    4.8720 C   0  0  0  0  0  0  0  0  0  0  0  0
   -9.9041  -22.5034    5.0446 N   0  0  0  0  0  0  0  0  0  0  0  0
  -10.6978  -22.8658    6.1023 C   0  0  0  0  0  0  0  0  0  0  0  0
  -11.8024  -22.2397    6.6758 C   0  0  0  0  0  0  0  0  0  0  0  0
  -12.4847  -22.9225    7.7021 C   0  0  0  0  0  0  0  0  0  0  0  0
  -12.0578  -24.1670    8.1795 C   0  0  0  0  0  0  0  0  0  0  0  0
  -10.9548  -24.8086    7.6087 C   0  0  0  0  0  0  0  0  0  0  0  0
  -10.3238  -24.1108    6.5807 C   0  0  0  0  0  0  0  0  0  0  0  0
   -9.2319  -24.5055    5.8858 O   0  0  0  0  0  0  0  0  0  0  0  0
   -7.2373  -22.5700    3.1960 H   0  0  0  0  0  0  0  0  0  0  0  0
   -7.6471  -23.5565    1.7820 H   0  0  0  0  0  0  0  0  0  0  0  0
   -8.7995  -22.3584    2.3956 H   0  0  0  0  0  0  0  0  0  0  0  0
   -7.8579  -24.8830    3.8603 H   0  0  0  0  0  0  0  0  0  0  0  0
  -10.4194  -24.2763    2.2932 H   0  0  0  0  0  0  0  0  0  0  0  0
   -9.3475  -25.6923    2.1972 H   0  0  0  0  0  0  0  0  0  0  0  0
  -11.5397  -25.2010    4.0993 H   0  0  0  0  0  0  0  0  0  0  0  0
  -10.5554  -28.5775    6.7575 H   0  0  0  0  0  0  0  0  0  0  0  0
  -11.5326  -29.2827    8.7092 H   0  0  0  0  0  0  0  0  0  0  0  0
  -14.3552  -27.1911    8.2333 H   0  0  0  0  0  0  0  0  0  0  0  0
  -14.5129  -25.7342    6.2101 H   0  0  0  0  0  0  0  0  0  0  0  0
  -12.1459  -21.3073    6.2535 H   0  0  0  0  0  0  0  0  0  0  0  0
  -13.4064  -22.5213    8.1115 H   0  0  0  0  0  0  0  0  0  0  0  0
  -12.5946  -24.6494    8.9923 H   0  0  0  0  0  0  0  0  0  0  0  0
  -10.5574  -25.7388    7.9851 H   0  0  0  0  0  0  0  0  0  0  0  0
  1  2  1  0
  2  3  1  0
  3  4  1  0
  4  5  1  0
  5  6  2  0
  5  7  1  0
  7  8  2  0
  8  9  1  0
  9 10  1  0
  9 11  2  0
 11 12  1  0
 12 13  2  0
  2 14  1  0
 14 15  2  0
 15 16  1  0
 16 17  2  0
 17 18  1  0
 18 19  2  0
 19 20  1  0
 20 21  2  0
 21 22  1  0
 13  7  1  0
 22 14  1  0
 21 16  1  0
  1 23  1  0
  1 24  1  0
  1 25  1  0
  2 26  1  0
  3 27  1  0
  3 28  1  0
  4 29  1  0
  8 30  1  0
 10 31  1  0
 11 32  1  0
 12 33  1  0
 17 34  1  0
 18 35  1  0
 19 36  1  0
 20 37  1  0
M  END
>  <Energy>  (1179) 
71.229632941929054

>  <compound_id>  (1179) 
28081

>  <target_id>  (1179) 
1

>  <reference_id>  (1179) 
48

>  <inspiration_ids>  (1179) 
[48, 2]

>  <energy_score>  (1179) 
-4.684118110064681

>  <distance_score>  (1179) 
3.3429085684372084

>  <path>  (1179) 
/opt/xchem-fragalysis-2/maxwin/BulkDock/SCRATCH/511017/C28081-P48/C28081-P48.minimised.mol

>  <scratch_subdir>  (1179) 
/opt/xchem-fragalysis-2/maxwin/BulkDock/SCRATCH/511017/C28081-P48

>  <fragmenstein_runtime>  (1179) 
1.384192943572998

>  <fragmenstein_outcome>  (1179) 
too moved

>  <fragmenstein_mode>  (1179) 
expansion

>  <fragmenstein_error>  (1179) 


$$$$
C28081-P2
     RDKit          3D

 37 39  0  0  0  0  0  0  0  0999 V2000
  -10.5787  -22.4319    3.8288 C   0  0  0  0  0  0  0  0  0  0  0  0
   -9.4168  -23.1705    4.5056 C   0  0  0  0  0  0  0  0  0  0  0  0
   -9.6242  -24.6977    4.3857 C   0  0  0  0  0  0  0  0  0  0  0  0
  -10.5193  -25.2157    5.3890 N   0  0  0  0  0  0  0  0  0  0  0  0
  -10.2513  -26.1522    6.5802 C   0  0  0  0  0  0  0  0  0  0  0  0
   -9.2807  -26.7152    6.8950 O   0  0  0  0  0  0  0  0  0  0  0  0
  -11.4731  -26.1966    7.4529 C   0  0  0  0  0  0  0  0  0  0  0  0
  -11.4365  -26.9009    8.6481 C   0  0  0  0  0  0  0  0  0  0  0  0
  -12.5746  -26.8703    9.4250 C   0  0  0  0  0  0  0  0  0  0  0  0
  -12.6516  -27.5352   10.6121 O   0  0  0  0  0  0  0  0  0  0  0  0
  -13.6852  -26.1511    9.0126 C   0  0  0  0  0  0  0  0  0  0  0  0
  -13.6194  -25.4545    7.8200 C   0  0  0  0  0  0  0  0  0  0  0  0
  -12.5350  -25.4485    7.0274 N   0  0  0  0  0  0  0  0  0  0  0  0
   -9.2631  -22.7015    5.9237 C   0  0  0  0  0  0  0  0  0  0  0  0
   -9.5597  -21.5202    6.4358 N   0  0  0  0  0  0  0  0  0  0  0  0
   -9.2988  -21.6751    7.7739 C   0  0  0  0  0  0  0  0  0  0  0  0
   -9.3471  -20.7652    8.8284 C   0  0  0  0  0  0  0  0  0  0  0  0
   -8.9251  -21.2023   10.0948 C   0  0  0  0  0  0  0  0  0  0  0  0
   -8.5479  -22.5304   10.3205 C   0  0  0  0  0  0  0  0  0  0  0  0
   -8.5231  -23.4615    9.2786 C   0  0  0  0  0  0  0  0  0  0  0  0
   -8.8694  -22.9642    8.0298 C   0  0  0  0  0  0  0  0  0  0  0  0
   -8.7879  -23.6083    6.8358 O   0  0  0  0  0  0  0  0  0  0  0  0
  -10.4099  -21.3490    3.8286 H   0  0  0  0  0  0  0  0  0  0  0  0
  -10.6869  -22.7476    2.7856 H   0  0  0  0  0  0  0  0  0  0  0  0
  -11.5290  -22.6187    4.3416 H   0  0  0  0  0  0  0  0  0  0  0  0
   -8.5011  -22.9099    3.9602 H   0  0  0  0  0  0  0  0  0  0  0  0
  -10.0161  -24.9754    3.4021 H   0  0  0  0  0  0  0  0  0  0  0  0
   -8.6638  -25.2080    4.5213 H   0  0  0  0  0  0  0  0  0  0  0  0
  -11.4621  -24.8307    5.4639 H   0  0  0  0  0  0  0  0  0  0  0  0
  -10.5473  -27.4473    8.9375 H   0  0  0  0  0  0  0  0  0  0  0  0
  -11.8117  -27.9985   10.7741 H   0  0  0  0  0  0  0  0  0  0  0  0
  -14.5845  -26.1270    9.6187 H   0  0  0  0  0  0  0  0  0  0  0  0
  -14.4648  -24.8705    7.4671 H   0  0  0  0  0  0  0  0  0  0  0  0
   -9.6497  -19.7447    8.6399 H   0  0  0  0  0  0  0  0  0  0  0  0
   -8.8745  -20.4954   10.9202 H   0  0  0  0  0  0  0  0  0  0  0  0
   -8.2088  -22.8243   11.3122 H   0  0  0  0  0  0  0  0  0  0  0  0
   -8.1781  -24.4779    9.4145 H   0  0  0  0  0  0  0  0  0  0  0  0
  1  2  1  0
  2  3  1  0
  3  4  1  0
  4  5  1  0
  5  6  2  0
  5  7  1  0
  7  8  2  0
  8  9  1  0
  9 10  1  0
  9 11  2  0
 11 12  1  0
 12 13  2  0
  2 14  1  0
 14 15  2  0
 15 16  1  0
 16 17  2  0
 17 18  1  0
 18 19  2  0
 19 20  1  0
 20 21  2  0
 21 22  1  0
 13  7  1  0
 22 14  1  0
 21 16  1  0
  1 23  1  0
  1 24  1  0
  1 25  1  0
  2 26  1  0
  3 27  1  0
  3 28  1  0
  4 29  1  0
  8 30  1  0
 10 31  1  0
 11 32  1  0
 12 33  1  0
 17 34  1  0
 18 35  1  0
 19 36  1  0
 20 37  1  0
M  END
>  <Energy>  (1180) 
59.542383915064818

>  <compound_id>  (1180) 
28081

>  <target_id>  (1180) 
1

>  <reference_id>  (1180) 
2

>  <inspiration_ids>  (1180) 
[48, 2]

>  <energy_score>  (1180) 
-16.371367136927937

>  <distance_score>  (1180) 
1.3456228389819749

>  <path>  (1180) 
/opt/xchem-fragalysis-2/maxwin/BulkDock/SCRATCH/511017/C28081-P2/C28081-P2.minimised.mol

>  <scratch_subdir>  (1180) 
/opt/xchem-fragalysis-2/maxwin/BulkDock/SCRATCH/511017/C28081-P2

>  <fragmenstein_runtime>  (1180) 
1.3803737163543701

>  <fragmenstein_outcome>  (1180) 
too moved

>  <fragmenstein_mode>  (1180) 
expansion

>  <fragmenstein_error>  (1180) 


$$$$
C28082-P48
     RDKit          3D

 34 36  0  0  0  0  0  0  0  0999 V2000
  -10.1483  -27.9039    4.7925 C   0  0  0  0  0  0  0  0  0  0  0  0
  -11.4082  -27.0583    4.5711 C   0  0  0  0  0  0  0  0  0  0  0  0
  -11.1315  -25.8070    3.8035 N   0  0  0  0  0  0  0  0  0  0  0  0
  -10.1007  -24.8630    4.3283 C   0  0  0  0  0  0  0  0  0  0  0  0
  -10.3280  -24.4923    5.7447 C   0  0  0  0  0  0  0  0  0  0  0  0
  -11.3016  -23.7528    6.2456 N   0  0  0  0  0  0  0  0  0  0  0  0
  -11.3977  -24.2351    7.5286 C   0  0  0  0  0  0  0  0  0  0  0  0
  -12.2655  -23.9097    8.5846 C   0  0  0  0  0  0  0  0  0  0  0  0
  -12.0540  -24.5228    9.8430 C   0  0  0  0  0  0  0  0  0  0  0  0
  -11.0153  -25.4502   10.0469 C   0  0  0  0  0  0  0  0  0  0  0  0
  -10.1539  -25.8097    8.9974 C   0  0  0  0  0  0  0  0  0  0  0  0
  -10.3895  -25.1716    7.7724 C   0  0  0  0  0  0  0  0  0  0  0  0
   -9.6555  -25.2847    6.6369 O   0  0  0  0  0  0  0  0  0  0  0  0
  -12.3431  -26.8930    5.7821 C   0  0  0  0  0  0  0  0  0  0  0  0
  -13.4449  -26.0365    5.6617 C   0  0  0  0  0  0  0  0  0  0  0  0
  -14.2932  -25.8378    6.7397 C   0  0  0  0  0  0  0  0  0  0  0  0
  -14.1518  -26.4484    7.9308 N   0  0  0  0  0  0  0  0  0  0  0  0
  -13.1151  -27.3042    8.0314 C   0  0  0  0  0  0  0  0  0  0  0  0
  -12.2089  -27.5668    7.0044 C   0  0  0  0  0  0  0  0  0  0  0  0
   -9.4872  -27.4917    5.5582 H   0  0  0  0  0  0  0  0  0  0  0  0
   -9.5729  -27.9955    3.8642 H   0  0  0  0  0  0  0  0  0  0  0  0
  -10.4145  -28.9211    5.1018 H   0  0  0  0  0  0  0  0  0  0  0  0
  -12.0200  -27.6566    3.8791 H   0  0  0  0  0  0  0  0  0  0  0  0
  -10.8467  -26.0680    2.8619 H   0  0  0  0  0  0  0  0  0  0  0  0
   -9.1048  -25.3014    4.1991 H   0  0  0  0  0  0  0  0  0  0  0  0
  -10.1321  -23.9571    3.7135 H   0  0  0  0  0  0  0  0  0  0  0  0
  -13.0793  -23.2174    8.4173 H   0  0  0  0  0  0  0  0  0  0  0  0
  -12.7310  -24.2941   10.6637 H   0  0  0  0  0  0  0  0  0  0  0  0
  -10.8870  -25.9049   11.0267 H   0  0  0  0  0  0  0  0  0  0  0  0
   -9.3349  -26.5051    9.1224 H   0  0  0  0  0  0  0  0  0  0  0  0
  -13.6198  -25.4839    4.7429 H   0  0  0  0  0  0  0  0  0  0  0  0
  -15.1303  -25.1506    6.6648 H   0  0  0  0  0  0  0  0  0  0  0  0
  -13.0177  -27.7982    8.9936 H   0  0  0  0  0  0  0  0  0  0  0  0
  -11.4003  -28.2658    7.1831 H   0  0  0  0  0  0  0  0  0  0  0  0
  1  2  1  0
  2  3  1  0
  3  4  1  0
  4  5  1  0
  5  6  2  0
  6  7  1  0
  7  8  2  0
  8  9  1  0
  9 10  2  0
 10 11  1  0
 11 12  2  0
 12 13  1  0
  2 14  1  0
 14 15  2  0
 15 16  1  0
 16 17  2  0
 17 18  1  0
 18 19  2  0
 13  5  1  0
 19 14  1  0
 12  7  1  0
  1 20  1  0
  1 21  1  0
  1 22  1  0
  2 23  1  0
  3 24  1  0
  4 25  1  0
  4 26  1  0
  8 27  1  0
  9 28  1  0
 10 29  1  0
 11 30  1  0
 15 31  1  0
 16 32  1  0
 18 33  1  0
 19 34  1  0
M  END
>  <Energy>  (1181) 
71.362594061045073

>  <compound_id>  (1181) 
28082

>  <target_id>  (1181) 
1

>  <reference_id>  (1181) 
48

>  <inspiration_ids>  (1181) 
[48, 2]

>  <energy_score>  (1181) 
-8.84960286639329

>  <distance_score>  (1181) 
3.35577601288787

>  <path>  (1181) 
/opt/xchem-fragalysis-2/maxwin/BulkDock/SCRATCH/511017/C28082-P48/C28082-P48.minimised.mol

>  <scratch_subdir>  (1181) 
/opt/xchem-fragalysis-2/maxwin/BulkDock/SCRATCH/511017/C28082-P48

>  <fragmenstein_runtime>  (1181) 
1.2366516590118408

>  <fragmenstein_outcome>  (1181) 
too moved

>  <fragmenstein_mode>  (1181) 
expansion

>  <fragmenstein_error>  (1181) 


$$$$
C28082-P2
     RDKit          3D

 34 36  0  0  0  0  0  0  0  0999 V2000
  -11.0772  -27.2105    5.2014 C   0  0  0  0  0  0  0  0  0  0  0  0
  -10.7043  -25.9366    5.9692 C   0  0  0  0  0  0  0  0  0  0  0  0
  -10.7204  -24.8082    5.0104 N   0  0  0  0  0  0  0  0  0  0  0  0
   -9.5200  -23.9459    5.0454 C   0  0  0  0  0  0  0  0  0  0  0  0
   -9.3271  -23.2156    6.3322 C   0  0  0  0  0  0  0  0  0  0  0  0
   -9.6171  -21.9672    6.6525 N   0  0  0  0  0  0  0  0  0  0  0  0
   -9.2883  -21.9003    7.9857 C   0  0  0  0  0  0  0  0  0  0  0  0
   -9.3154  -20.8428    8.8948 C   0  0  0  0  0  0  0  0  0  0  0  0
   -8.8659  -21.0941   10.2036 C   0  0  0  0  0  0  0  0  0  0  0  0
   -8.4506  -22.3654   10.6093 C   0  0  0  0  0  0  0  0  0  0  0  0
   -8.4230  -23.4311    9.7127 C   0  0  0  0  0  0  0  0  0  0  0  0
   -8.8222  -23.1288    8.4196 C   0  0  0  0  0  0  0  0  0  0  0  0
   -8.7998  -23.9640    7.3501 O   0  0  0  0  0  0  0  0  0  0  0  0
  -11.6628  -25.7085    7.1348 C   0  0  0  0  0  0  0  0  0  0  0  0
  -13.0206  -25.4732    6.9008 C   0  0  0  0  0  0  0  0  0  0  0  0
  -13.8323  -25.1163    7.9617 C   0  0  0  0  0  0  0  0  0  0  0  0
  -13.3983  -24.9901    9.2312 N   0  0  0  0  0  0  0  0  0  0  0  0
  -12.1015  -25.2792    9.4552 C   0  0  0  0  0  0  0  0  0  0  0  0
  -11.2142  -25.6554    8.4589 C   0  0  0  0  0  0  0  0  0  0  0  0
  -11.0954  -28.0772    5.8721 H   0  0  0  0  0  0  0  0  0  0  0  0
  -10.3438  -27.4159    4.4131 H   0  0  0  0  0  0  0  0  0  0  0  0
  -12.0626  -27.1398    4.7269 H   0  0  0  0  0  0  0  0  0  0  0  0
   -9.6926  -26.1039    6.3586 H   0  0  0  0  0  0  0  0  0  0  0  0
  -11.5249  -24.2104    5.1997 H   0  0  0  0  0  0  0  0  0  0  0  0
   -9.6125  -23.2109    4.2379 H   0  0  0  0  0  0  0  0  0  0  0  0
   -8.6305  -24.5440    4.8154 H   0  0  0  0  0  0  0  0  0  0  0  0
   -9.6389  -19.8593    8.5793 H   0  0  0  0  0  0  0  0  0  0  0  0
   -8.8259  -20.2861   10.9290 H   0  0  0  0  0  0  0  0  0  0  0  0
   -8.0834  -22.5067   11.6240 H   0  0  0  0  0  0  0  0  0  0  0  0
   -8.0528  -24.4083    9.9903 H   0  0  0  0  0  0  0  0  0  0  0  0
  -13.4409  -25.5200    5.9011 H   0  0  0  0  0  0  0  0  0  0  0  0
  -14.8867  -24.9025    7.8101 H   0  0  0  0  0  0  0  0  0  0  0  0
  -11.7769  -25.1933   10.4882 H   0  0  0  0  0  0  0  0  0  0  0  0
  -10.1791  -25.8596    8.7097 H   0  0  0  0  0  0  0  0  0  0  0  0
  1  2  1  0
  2  3  1  0
  3  4  1  0
  4  5  1  0
  5  6  2  0
  6  7  1  0
  7  8  2  0
  8  9  1  0
  9 10  2  0
 10 11  1  0
 11 12  2  0
 12 13  1  0
  2 14  1  0
 14 15  2  0
 15 16  1  0
 16 17  2  0
 17 18  1  0
 18 19  2  0
 13  5  1  0
 19 14  1  0
 12  7  1  0
  1 20  1  0
  1 21  1  0
  1 22  1  0
  2 23  1  0
  3 24  1  0
  4 25  1  0
  4 26  1  0
  8 27  1  0
  9 28  1  0
 10 29  1  0
 11 30  1  0
 15 31  1  0
 16 32  1  0
 18 33  1  0
 19 34  1  0
M  END
>  <Energy>  (1182) 
56.241425424889783

>  <compound_id>  (1182) 
28082

>  <target_id>  (1182) 
1

>  <reference_id>  (1182) 
2

>  <inspiration_ids>  (1182) 
[48, 2]

>  <energy_score>  (1182) 
-23.97077150254779

>  <distance_score>  (1182) 
1.283806981493812

>  <path>  (1182) 
/opt/xchem-fragalysis-2/maxwin/BulkDock/SCRATCH/511017/C28082-P2/C28082-P2.minimised.mol

>  <scratch_subdir>  (1182) 
/opt/xchem-fragalysis-2/maxwin/BulkDock/SCRATCH/511017/C28082-P2

>  <fragmenstein_runtime>  (1182) 
1.1868748664855957

>  <fragmenstein_outcome>  (1182) 
too moved

>  <fragmenstein_mode>  (1182) 
expansion

>  <fragmenstein_error>  (1182) 


$$$$
C28083-P48
     RDKit          3D

 38 40  0  0  0  0  0  0  0  0999 V2000
  -12.8329  -24.8647   11.1928 C   0  0  0  0  0  0  0  0  0  0  0  0
  -11.6447  -24.9882   10.4171 O   0  0  0  0  0  0  0  0  0  0  0  0
  -11.8833  -25.5328    9.1692 C   0  0  0  0  0  0  0  0  0  0  0  0
  -10.7674  -25.9763    8.4715 C   0  0  0  0  0  0  0  0  0  0  0  0
  -10.9187  -26.4857    7.1736 C   0  0  0  0  0  0  0  0  0  0  0  0
   -9.6807  -26.8768    6.3577 C   0  0  0  0  0  0  0  0  0  0  0  0
   -9.4438  -28.3830    6.5109 C   0  0  0  0  0  0  0  0  0  0  0  0
   -9.7492  -26.5935    4.9015 N   0  0  0  0  0  0  0  0  0  0  0  0
   -8.8996  -25.4530    4.4490 C   0  0  0  0  0  0  0  0  0  0  0  0
   -9.4510  -24.1062    4.7314 C   0  0  0  0  0  0  0  0  0  0  0  0
   -9.0039  -22.9113    4.3887 N   0  0  0  0  0  0  0  0  0  0  0  0
   -9.7594  -22.0816    5.1674 C   0  0  0  0  0  0  0  0  0  0  0  0
   -9.6131  -20.7256    5.4299 C   0  0  0  0  0  0  0  0  0  0  0  0
  -10.1408  -20.3577    6.6598 C   0  0  0  0  0  0  0  0  0  0  0  0
  -11.0174  -21.1735    7.3721 C   0  0  0  0  0  0  0  0  0  0  0  0
  -11.4858  -22.3812    6.8945 C   0  0  0  0  0  0  0  0  0  0  0  0
  -10.6844  -22.8243    5.8770 C   0  0  0  0  0  0  0  0  0  0  0  0
  -10.5625  -24.1073    5.5086 O   0  0  0  0  0  0  0  0  0  0  0  0
  -12.2228  -26.5972    6.6845 C   0  0  0  0  0  0  0  0  0  0  0  0
  -13.2738  -26.1071    7.4490 C   0  0  0  0  0  0  0  0  0  0  0  0
  -13.1352  -25.5585    8.6744 N   0  0  0  0  0  0  0  0  0  0  0  0
  -13.5318  -24.1504   10.7456 H   0  0  0  0  0  0  0  0  0  0  0  0
  -12.5494  -24.4800   12.1774 H   0  0  0  0  0  0  0  0  0  0  0  0
  -13.3121  -25.8391   11.3395 H   0  0  0  0  0  0  0  0  0  0  0  0
   -9.7817  -25.8819    8.9163 H   0  0  0  0  0  0  0  0  0  0  0  0
   -8.8105  -26.3627    6.7864 H   0  0  0  0  0  0  0  0  0  0  0  0
   -9.3307  -28.6575    7.5661 H   0  0  0  0  0  0  0  0  0  0  0  0
  -10.2764  -28.9702    6.1052 H   0  0  0  0  0  0  0  0  0  0  0  0
   -8.5290  -28.6908    5.9916 H   0  0  0  0  0  0  0  0  0  0  0  0
  -10.7051  -26.3501    4.6513 H   0  0  0  0  0  0  0  0  0  0  0  0
   -8.7959  -25.5493    3.3621 H   0  0  0  0  0  0  0  0  0  0  0  0
   -7.8898  -25.5471    4.8638 H   0  0  0  0  0  0  0  0  0  0  0  0
   -8.8870  -20.1152    4.9108 H   0  0  0  0  0  0  0  0  0  0  0  0
   -9.7352  -19.4988    7.1765 H   0  0  0  0  0  0  0  0  0  0  0  0
  -11.2484  -20.8979    8.3853 H   0  0  0  0  0  0  0  0  0  0  0  0
  -12.1221  -23.0421    7.4648 H   0  0  0  0  0  0  0  0  0  0  0  0
  -12.4320  -27.0262    5.7108 H   0  0  0  0  0  0  0  0  0  0  0  0
  -14.2938  -26.1491    7.0766 H   0  0  0  0  0  0  0  0  0  0  0  0
  1  2  1  0
  2  3  1  0
  3  4  2  0
  4  5  1  0
  5  6  1  0
  6  7  1  0
  6  8  1  0
  8  9  1  0
  9 10  1  0
 10 11  2  0
 11 12  1  0
 12 13  2  0
 13 14  1  0
 14 15  2  0
 15 16  1  0
 16 17  2  0
 17 18  1  0
  5 19  2  0
 19 20  1  0
 20 21  2  0
 21  3  1  0
 18 10  1  0
 17 12  1  0
  1 22  1  0
  1 23  1  0
  1 24  1  0
  4 25  1  0
  6 26  1  0
  7 27  1  0
  7 28  1  0
  7 29  1  0
  8 30  1  0
  9 31  1  0
  9 32  1  0
 13 33  1  0
 14 34  1  0
 15 35  1  0
 16 36  1  0
 19 37  1  0
 20 38  1  0
M  END
>  <Energy>  (1183) 
58.195003508634386

>  <compound_id>  (1183) 
28083

>  <target_id>  (1183) 
1

>  <reference_id>  (1183) 
48

>  <inspiration_ids>  (1183) 
[48, 2]

>  <energy_score>  (1183) 
-15.576704879433407

>  <distance_score>  (1183) 
2.71373608290321

>  <path>  (1183) 
/opt/xchem-fragalysis-2/maxwin/BulkDock/SCRATCH/511017/C28083-P48/C28083-P48.minimised.mol

>  <scratch_subdir>  (1183) 
/opt/xchem-fragalysis-2/maxwin/BulkDock/SCRATCH/511017/C28083-P48

>  <fragmenstein_runtime>  (1183) 
1.5497217178344727

>  <fragmenstein_outcome>  (1183) 
too moved

>  <fragmenstein_mode>  (1183) 
expansion

>  <fragmenstein_error>  (1183) 


$$$$
C28083-P2
     RDKit          3D

 38 40  0  0  0  0  0  0  0  0999 V2000
  -13.6403  -25.2883   11.2984 C   0  0  0  0  0  0  0  0  0  0  0  0
  -12.3750  -25.2063   10.6492 O   0  0  0  0  0  0  0  0  0  0  0  0
  -12.4787  -25.3362    9.2796 C   0  0  0  0  0  0  0  0  0  0  0  0
  -11.3345  -25.7262    8.6038 C   0  0  0  0  0  0  0  0  0  0  0  0
  -11.3832  -25.8847    7.2093 C   0  0  0  0  0  0  0  0  0  0  0  0
  -10.1383  -26.2829    6.4346 C   0  0  0  0  0  0  0  0  0  0  0  0
  -10.2482  -27.7611    6.0260 C   0  0  0  0  0  0  0  0  0  0  0  0
   -9.8209  -25.4998    5.2246 N   0  0  0  0  0  0  0  0  0  0  0  0
   -9.9002  -24.0217    5.2509 C   0  0  0  0  0  0  0  0  0  0  0  0
   -9.4650  -23.2750    6.4705 C   0  0  0  0  0  0  0  0  0  0  0  0
   -9.6880  -22.0044    6.7663 N   0  0  0  0  0  0  0  0  0  0  0  0
   -9.2932  -21.9128    8.0777 C   0  0  0  0  0  0  0  0  0  0  0  0
   -9.2846  -20.8406    8.9677 C   0  0  0  0  0  0  0  0  0  0  0  0
   -8.8099  -21.0779   10.2695 C   0  0  0  0  0  0  0  0  0  0  0  0
   -8.3935  -22.3471   10.6819 C   0  0  0  0  0  0  0  0  0  0  0  0
   -8.3912  -23.4248    9.7996 C   0  0  0  0  0  0  0  0  0  0  0  0
   -8.8238  -23.1371    8.5155 C   0  0  0  0  0  0  0  0  0  0  0  0
   -8.8570  -23.9901    7.4637 O   0  0  0  0  0  0  0  0  0  0  0  0
  -12.6065  -25.6736    6.5747 C   0  0  0  0  0  0  0  0  0  0  0  0
  -13.6886  -25.2613    7.3343 C   0  0  0  0  0  0  0  0  0  0  0  0
  -13.6512  -25.0772    8.6699 N   0  0  0  0  0  0  0  0  0  0  0  0
  -13.4639  -25.2456   12.3776 H   0  0  0  0  0  0  0  0  0  0  0  0
  -14.2869  -24.4454   11.0342 H   0  0  0  0  0  0  0  0  0  0  0  0
  -14.1357  -26.2405   11.0776 H   0  0  0  0  0  0  0  0  0  0  0  0
  -10.4173  -25.8970    9.1572 H   0  0  0  0  0  0  0  0  0  0  0  0
   -9.2703  -26.2358    7.1015 H   0  0  0  0  0  0  0  0  0  0  0  0
  -10.4080  -28.3985    6.9036 H   0  0  0  0  0  0  0  0  0  0  0  0
  -11.0815  -27.9357    5.3351 H   0  0  0  0  0  0  0  0  0  0  0  0
   -9.3285  -28.1007    5.5358 H   0  0  0  0  0  0  0  0  0  0  0  0
  -10.3742  -25.8342    4.4394 H   0  0  0  0  0  0  0  0  0  0  0  0
  -10.9387  -23.7347    5.0452 H   0  0  0  0  0  0  0  0  0  0  0  0
   -9.3106  -23.6512    4.4045 H   0  0  0  0  0  0  0  0  0  0  0  0
   -9.6186  -19.8637    8.6449 H   0  0  0  0  0  0  0  0  0  0  0  0
   -8.7513  -20.2625   10.9842 H   0  0  0  0  0  0  0  0  0  0  0  0
   -8.0071  -22.4797   11.6903 H   0  0  0  0  0  0  0  0  0  0  0  0
   -8.0301  -24.4035   10.0829 H   0  0  0  0  0  0  0  0  0  0  0  0
  -12.7193  -25.7981    5.5033 H   0  0  0  0  0  0  0  0  0  0  0  0
  -14.6506  -25.0622    6.8697 H   0  0  0  0  0  0  0  0  0  0  0  0
  1  2  1  0
  2  3  1  0
  3  4  2  0
  4  5  1  0
  5  6  1  0
  6  7  1  0
  6  8  1  0
  8  9  1  0
  9 10  1  0
 10 11  2  0
 11 12  1  0
 12 13  2  0
 13 14  1  0
 14 15  2  0
 15 16  1  0
 16 17  2  0
 17 18  1  0
  5 19  2  0
 19 20  1  0
 20 21  2  0
 21  3  1  0
 18 10  1  0
 17 12  1  0
  1 22  1  0
  1 23  1  0
  1 24  1  0
  4 25  1  0
  6 26  1  0
  7 27  1  0
  7 28  1  0
  7 29  1  0
  8 30  1  0
  9 31  1  0
  9 32  1  0
 13 33  1  0
 14 34  1  0
 15 35  1  0
 16 36  1  0
 19 37  1  0
 20 38  1  0
M  END
>  <Energy>  (1184) 
48.229753283815839

>  <compound_id>  (1184) 
28083

>  <target_id>  (1184) 
1

>  <reference_id>  (1184) 
2

>  <inspiration_ids>  (1184) 
[48, 2]

>  <energy_score>  (1184) 
-25.541955104250132

>  <distance_score>  (1184) 
1.1803773311895276

>  <path>  (1184) 
/opt/xchem-fragalysis-2/maxwin/BulkDock/SCRATCH/511017/C28083-P2/C28083-P2.minimised.mol

>  <scratch_subdir>  (1184) 
/opt/xchem-fragalysis-2/maxwin/BulkDock/SCRATCH/511017/C28083-P2

>  <fragmenstein_runtime>  (1184) 
1.389739990234375

>  <fragmenstein_outcome>  (1184) 
too moved

>  <fragmenstein_mode>  (1184) 
expansion

>  <fragmenstein_error>  (1184) 


$$$$
C72670-P66
     RDKit          3D

 43 45  0  0  0  0  0  0  0  0999 V2000
    8.9607    0.1194   13.5608 C   0  0  0  0  0  0  0  0  0  0  0  0
    7.6925   -0.6224   12.9055 C   0  0  0  0  0  0  0  0  0  0  0  0
    6.9187   -0.7727   11.6917 C   0  0  0  0  0  0  0  0  0  0  0  0
    5.3999   -0.8020   11.9044 C   0  0  0  0  0  0  0  0  0  0  0  0
    3.5596   -0.0964   11.2470 C   0  0  0  0  0  0  0  0  0  0  0  0
    3.2233    1.4313   12.2006 C   0  0  0  0  0  0  0  0  0  0  0  0
    3.7731    1.1189   10.0178 C   0  0  0  0  0  0  0  0  0  0  0  0
    1.5976   -0.8109   11.6018 C   0  0  0  0  0  0  0  0  0  0  0  0
    1.1780   -1.0393   12.7469 O   0  0  0  0  0  0  0  0  0  0  0  0
    0.6862   -0.8283    9.9480 N   0  0  0  0  0  0  0  0  0  0  0  0
   -1.3572   -1.0563    9.4049 C   0  0  0  0  0  0  0  0  0  0  0  0
   -2.9965   -0.4272    8.8596 C   0  0  0  0  0  0  0  0  0  0  0  0
   -3.3800    0.8255    8.7530 N   0  0  0  0  0  0  0  0  0  0  0  0
   -4.6341    0.8854    8.1578 N   0  0  0  0  0  0  0  0  0  0  0  0
   -5.1875   -0.2747    8.2982 C   0  0  0  0  0  0  0  0  0  0  0  0
   -4.1448   -1.1664    8.4786 N   0  0  0  0  0  0  0  0  0  0  0  0
   -4.1745   -2.1935    7.4760 C   0  0  0  0  0  0  0  0  0  0  0  0
   -5.5879   -2.6069    6.9595 C   0  0  0  0  0  0  0  0  0  0  0  0
   -6.7228   -2.0404    7.6769 N   0  0  0  0  0  0  0  0  0  0  0  0
   -6.5697   -0.6161    7.8905 C   0  0  0  0  0  0  0  0  0  0  0  0
    5.9996   -2.0720   12.5648 C   0  0  0  0  0  0  0  0  0  0  0  0
    7.0283   -1.8146   13.9353 S   0  0  0  0  0  0  0  0  0  0  0  0
    9.4841    0.8346   12.9309 H   0  0  0  0  0  0  0  0  0  0  0  0
    9.7208   -0.5119   14.0410 H   0  0  0  0  0  0  0  0  0  0  0  0
    8.6387    0.6442   14.4486 H   0  0  0  0  0  0  0  0  0  0  0  0
    7.1438   -0.4911   10.7003 H   0  0  0  0  0  0  0  0  0  0  0  0
    4.1614    1.8995   12.4702 H   0  0  0  0  0  0  0  0  0  0  0  0
    2.5680    1.2491   13.0472 H   0  0  0  0  0  0  0  0  0  0  0  0
    2.7294    2.2220   11.6401 H   0  0  0  0  0  0  0  0  0  0  0  0
    4.2080    2.0697   10.3584 H   0  0  0  0  0  0  0  0  0  0  0  0
    4.4593    0.9138    9.2058 H   0  0  0  0  0  0  0  0  0  0  0  0
    2.7967    1.3836    9.5924 H   0  0  0  0  0  0  0  0  0  0  0  0
    1.3226   -0.6802    9.1922 H   0  0  0  0  0  0  0  0  0  0  0  0
   -1.4497   -0.1541    8.8034 H   0  0  0  0  0  0  0  0  0  0  0  0
   -1.4359   -1.7173    8.4734 H   0  0  0  0  0  0  0  0  0  0  0  0
   -3.5291   -3.0291    7.7476 H   0  0  0  0  0  0  0  0  0  0  0  0
   -3.6906   -1.5995    6.7248 H   0  0  0  0  0  0  0  0  0  0  0  0
   -5.6630   -3.6970    6.9642 H   0  0  0  0  0  0  0  0  0  0  0  0
   -5.7301   -2.3326    5.9208 H   0  0  0  0  0  0  0  0  0  0  0  0
   -7.6057   -2.2398    7.2084 H   0  0  0  0  0  0  0  0  0  0  0  0
   -7.2706   -0.2871    8.6645 H   0  0  0  0  0  0  0  0  0  0  0  0
   -6.8196   -0.0745    6.9704 H   0  0  0  0  0  0  0  0  0  0  0  0
    5.3776   -2.9697   12.5946 H   0  0  0  0  0  0  0  0  0  0  0  0
  1  2  1  0
  2  3  2  0
  3  4  1  0
  4  5  1  0
  5  6  1  0
  5  7  1  0
  5  8  1  0
  8  9  2  0
  8 10  1  0
 10 11  1  0
 11 12  1  0
 12 13  2  0
 13 14  1  0
 14 15  2  0
 15 16  1  0
 16 17  1  0
 17 18  1  0
 18 19  1  0
 19 20  1  0
  4 21  2  0
 21 22  1  0
 22  2  1  0
 16 12  1  0
 20 15  1  0
  1 23  1  0
  1 24  1  0
  1 25  1  0
  3 26  1  0
  6 27  1  0
  6 28  1  0
  6 29  1  0
  7 30  1  0
  7 31  1  0
  7 32  1  0
 10 33  1  0
 11 34  1  0
 11 35  1  0
 17 36  1  0
 17 37  1  0
 18 38  1  0
 18 39  1  0
 19 40  1  0
 20 41  1  0
 20 42  1  0
 21 43  1  0
M  END
>  <Energy>  (1185) 
753.36373186201843

>  <compound_id>  (1185) 
72670

>  <target_id>  (1185) 
1

>  <reference_id>  (1185) 
66

>  <inspiration_ids>  (1185) 
[66, 65]

>  <energy_score>  (1185) 
672.6799920094088

>  <distance_score>  (1185) 
6.602069729050049

>  <path>  (1185) 
/opt/xchem-fragalysis-2/maxwin/BulkDock/SCRATCH/511017/C72670-P66/C72670-P66.minimised.mol

>  <scratch_subdir>  (1185) 
/opt/xchem-fragalysis-2/maxwin/BulkDock/SCRATCH/511017/C72670-P66

>  <fragmenstein_runtime>  (1185) 
13.42901873588562

>  <fragmenstein_outcome>  (1185) 
too moved

>  <fragmenstein_mode>  (1185) 
expansion

>  <fragmenstein_error>  (1185) 


$$$$
C72670-P65
     RDKit          3D

 43 45  0  0  0  0  0  0  0  0999 V2000
    9.4764   -2.8769   15.1077 C   0  0  0  0  0  0  0  0  0  0  0  0
    8.0309   -2.4157   15.1240 C   0  0  0  0  0  0  0  0  0  0  0  0
    6.6577   -2.6847   14.6595 C   0  0  0  0  0  0  0  0  0  0  0  0
    6.3088   -2.3240   13.3043 C   0  0  0  0  0  0  0  0  0  0  0  0
    5.3489   -2.9555   11.5645 C   0  0  0  0  0  0  0  0  0  0  0  0
    7.2175   -2.8090   10.9984 C   0  0  0  0  0  0  0  0  0  0  0  0
    5.6754   -0.9635   12.0231 C   0  0  0  0  0  0  0  0  0  0  0  0
    3.7103   -4.0333   10.4324 C   0  0  0  0  0  0  0  0  0  0  0  0
    3.3044   -4.9122   11.1650 O   0  0  0  0  0  0  0  0  0  0  0  0
    2.4510   -3.9525    8.6976 N   0  0  0  0  0  0  0  0  0  0  0  0
    0.5090   -5.0147    8.1683 C   0  0  0  0  0  0  0  0  0  0  0  0
   -1.7228   -4.8295    7.3379 C   0  0  0  0  0  0  0  0  0  0  0  0
   -2.9896   -5.2623    7.6579 N   0  0  0  0  0  0  0  0  0  0  0  0
   -3.4845   -4.2624    8.5966 N   0  0  0  0  0  0  0  0  0  0  0  0
   -3.1329   -3.0164    8.2276 C   0  0  0  0  0  0  0  0  0  0  0  0
   -2.7244   -3.4433    7.0625 N   0  0  0  0  0  0  0  0  0  0  0  0
   -3.9030   -3.2351    6.1231 C   0  0  0  0  0  0  0  0  0  0  0  0
   -4.1383   -1.7232    5.9857 C   0  0  0  0  0  0  0  0  0  0  0  0
   -4.5153   -1.1707    7.2826 N   0  0  0  0  0  0  0  0  0  0  0  0
   -3.5818   -1.5760    8.3526 C   0  0  0  0  0  0  0  0  0  0  0  0
    7.4578   -1.3273   13.4081 C   0  0  0  0  0  0  0  0  0  0  0  0
    8.1122   -0.7796   14.9679 S   0  0  0  0  0  0  0  0  0  0  0  0
   10.0849   -2.3481   15.8598 H   0  0  0  0  0  0  0  0  0  0  0  0
    9.5885   -3.9368   15.1981 H   0  0  0  0  0  0  0  0  0  0  0  0
   10.0783   -2.5938   14.2528 H   0  0  0  0  0  0  0  0  0  0  0  0
    5.9849   -3.3227   15.1780 H   0  0  0  0  0  0  0  0  0  0  0  0
    7.6729   -1.7897   10.7443 H   0  0  0  0  0  0  0  0  0  0  0  0
    7.7892   -2.4824   11.8078 H   0  0  0  0  0  0  0  0  0  0  0  0
    7.5247   -3.4466   10.1491 H   0  0  0  0  0  0  0  0  0  0  0  0
    5.7072   -0.4555   12.9556 H   0  0  0  0  0  0  0  0  0  0  0  0
    4.8730   -0.3990   11.4042 H   0  0  0  0  0  0  0  0  0  0  0  0
    6.6045   -0.7458   11.4828 H   0  0  0  0  0  0  0  0  0  0  0  0
    2.8459   -3.2786    8.0562 H   0  0  0  0  0  0  0  0  0  0  0  0
    0.6067   -6.0432    7.8158 H   0  0  0  0  0  0  0  0  0  0  0  0
    0.3831   -5.5347    9.1657 H   0  0  0  0  0  0  0  0  0  0  0  0
   -3.7240   -3.6991    5.1729 H   0  0  0  0  0  0  0  0  0  0  0  0
   -4.8036   -3.6795    6.5603 H   0  0  0  0  0  0  0  0  0  0  0  0
   -4.9487   -1.5432    5.2720 H   0  0  0  0  0  0  0  0  0  0  0  0
   -3.2430   -1.2216    5.6053 H   0  0  0  0  0  0  0  0  0  0  0  0
   -4.6073   -0.1580    7.2647 H   0  0  0  0  0  0  0  0  0  0  0  0
   -4.0741   -1.3398    9.2876 H   0  0  0  0  0  0  0  0  0  0  0  0
   -2.6986   -0.9383    8.2892 H   0  0  0  0  0  0  0  0  0  0  0  0
    7.8399   -0.6350   12.6762 H   0  0  0  0  0  0  0  0  0  0  0  0
  1  2  1  0
  2  3  2  0
  3  4  1  0
  4  5  1  0
  5  6  1  0
  5  7  1  0
  5  8  1  0
  8  9  2  0
  8 10  1  0
 10 11  1  0
 11 12  1  0
 12 13  2  0
 13 14  1  0
 14 15  2  0
 15 16  1  0
 16 17  1  0
 17 18  1  0
 18 19  1  0
 19 20  1  0
  4 21  2  0
 21 22  1  0
 22  2  1  0
 16 12  1  0
 20 15  1  0
  1 23  1  0
  1 24  1  0
  1 25  1  0
  3 26  1  0
  6 27  1  0
  6 28  1  0
  6 29  1  0
  7 30  1  0
  7 31  1  0
  7 32  1  0
 10 33  1  0
 11 34  1  0
 11 35  1  0
 17 36  1  0
 17 37  1  0
 18 38  1  0
 18 39  1  0
 19 40  1  0
 20 41  1  0
 20 42  1  0
 21 43  1  0
M  END
>  <Energy>  (1186) 
1816.7651585757474

>  <compound_id>  (1186) 
72670

>  <target_id>  (1186) 
1

>  <reference_id>  (1186) 
65

>  <inspiration_ids>  (1186) 
[66, 65]

>  <energy_score>  (1186) 
1736.0814187231683

>  <distance_score>  (1186) 
6.015656010284798

>  <path>  (1186) 
/opt/xchem-fragalysis-2/maxwin/BulkDock/SCRATCH/511017/C72670-P65/C72670-P65.minimised.mol

>  <scratch_subdir>  (1186) 
/opt/xchem-fragalysis-2/maxwin/BulkDock/SCRATCH/511017/C72670-P65

>  <fragmenstein_runtime>  (1186) 
8.201740026473999

>  <fragmenstein_outcome>  (1186) 
too moved

>  <fragmenstein_mode>  (1186) 
expansion

>  <fragmenstein_error>  (1186) 


$$$$
C72671-P66
     RDKit          3D

 35 37  0  0  0  0  0  0  0  0999 V2000
    7.7127   -1.2059   13.9541 C   0  0  0  0  0  0  0  0  0  0  0  0
    6.5275   -1.6362   13.1308 C   0  0  0  0  0  0  0  0  0  0  0  0
    5.6482   -1.2064   12.0850 C   0  0  0  0  0  0  0  0  0  0  0  0
    3.9478   -2.1974   11.6369 C   0  0  0  0  0  0  0  0  0  0  0  0
    1.9664   -1.0624   11.2111 S   0  0  0  0  0  0  0  0  0  0  0  0
    2.8167    0.1981   11.0836 O   0  0  0  0  0  0  0  0  0  0  0  0
    1.7255   -1.9721   10.0836 O   0  0  0  0  0  0  0  0  0  0  0  0
   -0.1098   -1.2016   10.5336 N   0  0  0  0  0  0  0  0  0  0  0  0
   -1.6093   -0.9327    9.0580 C   0  0  0  0  0  0  0  0  0  0  0  0
   -3.3056   -1.2737    8.4518 C   0  0  0  0  0  0  0  0  0  0  0  0
   -3.6587   -2.3783    7.8044 N   0  0  0  0  0  0  0  0  0  0  0  0
   -5.0584   -2.3741    7.6819 N   0  0  0  0  0  0  0  0  0  0  0  0
   -5.4979   -1.3223    8.3779 C   0  0  0  0  0  0  0  0  0  0  0  0
   -4.4610   -0.4103    8.1039 N   0  0  0  0  0  0  0  0  0  0  0  0
   -5.0810    0.0478    6.7929 C   0  0  0  0  0  0  0  0  0  0  0  0
   -6.2508    0.9887    7.0801 C   0  0  0  0  0  0  0  0  0  0  0  0
   -7.3438    0.2210    7.6675 N   0  0  0  0  0  0  0  0  0  0  0  0
   -6.9138   -0.8411    8.5957 C   0  0  0  0  0  0  0  0  0  0  0  0
    4.1449   -3.2605   12.5469 C   0  0  0  0  0  0  0  0  0  0  0  0
    5.7707   -2.7950   14.0776 S   0  0  0  0  0  0  0  0  0  0  0  0
    8.2551   -0.3469   13.5579 H   0  0  0  0  0  0  0  0  0  0  0  0
    7.4164   -0.9577   14.9789 H   0  0  0  0  0  0  0  0  0  0  0  0
    8.3441   -2.0603   14.2360 H   0  0  0  0  0  0  0  0  0  0  0  0
    6.0627   -0.7028   11.2332 H   0  0  0  0  0  0  0  0  0  0  0  0
   -0.6596   -0.9295   11.3922 H   0  0  0  0  0  0  0  0  0  0  0  0
   -1.3931   -1.5877    8.2082 H   0  0  0  0  0  0  0  0  0  0  0  0
   -1.8670    0.1108    8.8752 H   0  0  0  0  0  0  0  0  0  0  0  0
   -4.4378    0.3530    5.9908 H   0  0  0  0  0  0  0  0  0  0  0  0
   -5.5506   -0.8018    6.2675 H   0  0  0  0  0  0  0  0  0  0  0  0
   -5.9579    1.8196    7.7232 H   0  0  0  0  0  0  0  0  0  0  0  0
   -6.6067    1.4246    6.1403 H   0  0  0  0  0  0  0  0  0  0  0  0
   -8.0468    0.8143    8.1047 H   0  0  0  0  0  0  0  0  0  0  0  0
   -7.6023   -1.6832    8.4804 H   0  0  0  0  0  0  0  0  0  0  0  0
   -7.0110   -0.4631    9.6161 H   0  0  0  0  0  0  0  0  0  0  0  0
    3.3736   -3.8913   12.9866 H   0  0  0  0  0  0  0  0  0  0  0  0
  1  2  1  0
  2  3  2  0
  3  4  1  0
  4  5  1  0
  5  6  2  0
  5  7  2  0
  5  8  1  0
  8  9  1  0
  9 10  1  0
 10 11  2  0
 11 12  1  0
 12 13  2  0
 13 14  1  0
 14 15  1  0
 15 16  1  0
 16 17  1  0
 17 18  1  0
  4 19  2  0
 19 20  1  0
 20  2  1  0
 14 10  1  0
 18 13  1  0
  1 21  1  0
  1 22  1  0
  1 23  1  0
  3 24  1  0
  8 25  1  0
  9 26  1  0
  9 27  1  0
 15 28  1  0
 15 29  1  0
 16 30  1  0
 16 31  1  0
 17 32  1  0
 18 33  1  0
 18 34  1  0
 19 35  1  0
M  END
>  <Energy>  (1187) 
728.03574333716676

>  <compound_id>  (1187) 
72671

>  <target_id>  (1187) 
1

>  <reference_id>  (1187) 
66

>  <inspiration_ids>  (1187) 
[66, 65]

>  <energy_score>  (1187) 
722.042194071588

>  <distance_score>  (1187) 
5.982912768853175

>  <path>  (1187) 
/opt/xchem-fragalysis-2/maxwin/BulkDock/SCRATCH/511017/C72671-P66/C72671-P66.minimised.mol

>  <scratch_subdir>  (1187) 
/opt/xchem-fragalysis-2/maxwin/BulkDock/SCRATCH/511017/C72671-P66

>  <fragmenstein_runtime>  (1187) 
7.327560186386108

>  <fragmenstein_outcome>  (1187) 
too moved

>  <fragmenstein_mode>  (1187) 
expansion

>  <fragmenstein_error>  (1187) 


$$$$
C72671-P65
     RDKit          3D

 35 37  0  0  0  0  0  0  0  0999 V2000
    9.0122    0.0184   13.9563 C   0  0  0  0  0  0  0  0  0  0  0  0
    7.8105   -0.9142   13.5087 C   0  0  0  0  0  0  0  0  0  0  0  0
    7.0255   -1.2279   12.3198 C   0  0  0  0  0  0  0  0  0  0  0  0
    5.8961   -2.2841   12.4422 C   0  0  0  0  0  0  0  0  0  0  0  0
    3.8756   -2.7191   11.3852 S   0  0  0  0  0  0  0  0  0  0  0  0
    3.5042   -3.6212   12.4853 O   0  0  0  0  0  0  0  0  0  0  0  0
    3.9948   -1.2972   11.3601 O   0  0  0  0  0  0  0  0  0  0  0  0
    1.8134   -1.6629   10.9688 N   0  0  0  0  0  0  0  0  0  0  0  0
    0.5076   -1.3849    9.3931 C   0  0  0  0  0  0  0  0  0  0  0  0
   -1.5454   -1.4328    8.8616 C   0  0  0  0  0  0  0  0  0  0  0  0
   -2.6924   -0.6955    9.1305 N   0  0  0  0  0  0  0  0  0  0  0  0
   -3.1785   -0.0076    8.0545 N   0  0  0  0  0  0  0  0  0  0  0  0
   -2.9533   -0.7718    7.0261 C   0  0  0  0  0  0  0  0  0  0  0  0
   -2.3109   -1.9178    7.5431 N   0  0  0  0  0  0  0  0  0  0  0  0
   -3.2953   -3.0317    7.5404 C   0  0  0  0  0  0  0  0  0  0  0  0
   -4.7149   -2.6184    7.0645 C   0  0  0  0  0  0  0  0  0  0  0  0
   -4.6599   -1.9943    5.7353 N   0  0  0  0  0  0  0  0  0  0  0  0
   -3.8140   -0.7961    5.7982 C   0  0  0  0  0  0  0  0  0  0  0  0
    6.1272   -2.4767   13.9503 C   0  0  0  0  0  0  0  0  0  0  0  0
    7.5324   -1.9902   14.7332 S   0  0  0  0  0  0  0  0  0  0  0  0
    9.3868    0.6396   13.1415 H   0  0  0  0  0  0  0  0  0  0  0  0
    8.7691    0.6375   14.8248 H   0  0  0  0  0  0  0  0  0  0  0  0
    9.8645   -0.5566   14.3541 H   0  0  0  0  0  0  0  0  0  0  0  0
    7.2332   -0.7605   11.3795 H   0  0  0  0  0  0  0  0  0  0  0  0
    2.1486   -0.7299   11.2524 H   0  0  0  0  0  0  0  0  0  0  0  0
    1.0424   -0.4955    8.9831 H   0  0  0  0  0  0  0  0  0  0  0  0
    1.0321   -1.9406    8.5770 H   0  0  0  0  0  0  0  0  0  0  0  0
   -2.9724   -3.8538    6.9113 H   0  0  0  0  0  0  0  0  0  0  0  0
   -3.2375   -3.4659    8.5160 H   0  0  0  0  0  0  0  0  0  0  0  0
   -5.3633   -3.4930    6.9908 H   0  0  0  0  0  0  0  0  0  0  0  0
   -5.1967   -1.9308    7.7712 H   0  0  0  0  0  0  0  0  0  0  0  0
   -5.6050   -1.7077    5.4777 H   0  0  0  0  0  0  0  0  0  0  0  0
   -4.4484    0.0980    5.7915 H   0  0  0  0  0  0  0  0  0  0  0  0
   -3.2207   -0.7831    4.8834 H   0  0  0  0  0  0  0  0  0  0  0  0
    5.4301   -2.8522   14.6706 H   0  0  0  0  0  0  0  0  0  0  0  0
  1  2  1  0
  2  3  2  0
  3  4  1  0
  4  5  1  0
  5  6  2  0
  5  7  2  0
  5  8  1  0
  8  9  1  0
  9 10  1  0
 10 11  2  0
 11 12  1  0
 12 13  2  0
 13 14  1  0
 14 15  1  0
 15 16  1  0
 16 17  1  0
 17 18  1  0
  4 19  2  0
 19 20  1  0
 20  2  1  0
 14 10  1  0
 18 13  1  0
  1 21  1  0
  1 22  1  0
  1 23  1  0
  3 24  1  0
  8 25  1  0
  9 26  1  0
  9 27  1  0
 15 28  1  0
 15 29  1  0
 16 30  1  0
 16 31  1  0
 17 32  1  0
 18 33  1  0
 18 34  1  0
 19 35  1  0
M  END
>  <Energy>  (1188) 
627.04378158436998

>  <compound_id>  (1188) 
72671

>  <target_id>  (1188) 
1

>  <reference_id>  (1188) 
65

>  <inspiration_ids>  (1188) 
[66, 65]

>  <energy_score>  (1188) 
621.0502323187804

>  <distance_score>  (1188) 
5.592770542368829

>  <path>  (1188) 
/opt/xchem-fragalysis-2/maxwin/BulkDock/SCRATCH/511017/C72671-P65/C72671-P65.minimised.mol

>  <scratch_subdir>  (1188) 
/opt/xchem-fragalysis-2/maxwin/BulkDock/SCRATCH/511017/C72671-P65

>  <fragmenstein_runtime>  (1188) 
7.346959352493286

>  <fragmenstein_outcome>  (1188) 
too moved

>  <fragmenstein_mode>  (1188) 
expansion

>  <fragmenstein_error>  (1188) 


$$$$
C72676-P66
     RDKit          3D

 32 34  0  0  0  0  0  0  0  0999 V2000
    6.0843   -2.4080   12.9836 O   0  0  0  0  0  0  0  0  0  0  0  0
    5.9624   -1.1768   12.1951 S   0  0  0  0  0  0  0  0  0  0  0  0
    6.8453   -1.0169   11.0533 O   0  0  0  0  0  0  0  0  0  0  0  0
    3.8456   -2.1210   11.5266 N   0  0  0  0  0  0  0  0  0  0  0  0
    1.8375   -1.5118   11.3239 C   0  0  0  0  0  0  0  0  0  0  0  0
    0.3495   -1.3744    9.9542 C   0  0  0  0  0  0  0  0  0  0  0  0
    0.5243   -2.3390    8.7267 N   0  0  0  0  0  0  0  0  0  0  0  0
   -0.9409   -1.8584    7.5122 N   0  0  0  0  0  0  0  0  0  0  0  0
   -2.0038   -1.8318    8.2142 C   0  0  0  0  0  0  0  0  0  0  0  0
   -1.4573   -0.9907    9.2355 N   0  0  0  0  0  0  0  0  0  0  0  0
   -2.5645    0.0963    8.8723 C   0  0  0  0  0  0  0  0  0  0  0  0
   -3.9515   -0.2152    8.1050 C   0  0  0  0  0  0  0  0  0  0  0  0
   -4.4051   -1.4759    8.5544 N   0  0  0  0  0  0  0  0  0  0  0  0
   -3.3909   -2.3089    7.9397 C   0  0  0  0  0  0  0  0  0  0  0  0
    7.6854   -0.9527   13.4427 C   0  0  0  0  0  0  0  0  0  0  0  0
    7.8882   -1.9812   14.8172 S   0  0  0  0  0  0  0  0  0  0  0  0
    9.5956   -1.7509   14.9403 C   0  0  0  0  0  0  0  0  0  0  0  0
    9.9431   -0.5514   14.3450 C   0  0  0  0  0  0  0  0  0  0  0  0
    8.8322   -0.0407   13.5776 C   0  0  0  0  0  0  0  0  0  0  0  0
    9.2157    0.9292   12.7389 F   0  0  0  0  0  0  0  0  0  0  0  0
    3.8696   -3.0660   11.9447 H   0  0  0  0  0  0  0  0  0  0  0  0
    1.6573   -0.7444   12.0882 H   0  0  0  0  0  0  0  0  0  0  0  0
    1.4461   -2.3276   11.9542 H   0  0  0  0  0  0  0  0  0  0  0  0
   -2.1771    1.0359    8.5490 H   0  0  0  0  0  0  0  0  0  0  0  0
   -3.1440    0.1450    9.7308 H   0  0  0  0  0  0  0  0  0  0  0  0
   -4.7092    0.5361    8.3169 H   0  0  0  0  0  0  0  0  0  0  0  0
   -3.9417   -0.3185    7.0198 H   0  0  0  0  0  0  0  0  0  0  0  0
   -4.2591   -1.4888    9.5575 H   0  0  0  0  0  0  0  0  0  0  0  0
   -3.8161   -2.2679    6.9518 H   0  0  0  0  0  0  0  0  0  0  0  0
   -3.3751   -3.3918    8.0698 H   0  0  0  0  0  0  0  0  0  0  0  0
   10.2680   -2.4105   15.4685 H   0  0  0  0  0  0  0  0  0  0  0  0
   10.9444   -0.1405   14.3280 H   0  0  0  0  0  0  0  0  0  0  0  0
  1  2  2  0
  2  3  2  0
  2  4  1  0
  4  5  1  0
  5  6  1  0
  6  7  2  0
  7  8  1  0
  8  9  2  0
  9 10  1  0
 10 11  1  0
 11 12  1  0
 12 13  1  0
 13 14  1  0
  2 15  1  0
 15 16  1  0
 16 17  1  0
 17 18  2  0
 18 19  1  0
 19 20  1  0
 10  6  1  0
 19 15  2  0
 14  9  1  0
  4 21  1  0
  5 22  1  0
  5 23  1  0
 11 24  1  0
 11 25  1  0
 12 26  1  0
 12 27  1  0
 13 28  1  0
 14 29  1  0
 14 30  1  0
 17 31  1  0
 18 32  1  0
M  END
>  <Energy>  (1189) 
851.44769838045841

>  <compound_id>  (1189) 
72676

>  <target_id>  (1189) 
1

>  <reference_id>  (1189) 
66

>  <inspiration_ids>  (1189) 
[66, 65]

>  <energy_score>  (1189) 
861.718641448148

>  <distance_score>  (1189) 
6.50395933182396

>  <path>  (1189) 
/opt/xchem-fragalysis-2/maxwin/BulkDock/SCRATCH/511017/C72676-P66/C72676-P66.minimised.mol

>  <scratch_subdir>  (1189) 
/opt/xchem-fragalysis-2/maxwin/BulkDock/SCRATCH/511017/C72676-P66

>  <fragmenstein_runtime>  (1189) 
6.705477237701416

>  <fragmenstein_outcome>  (1189) 
too moved

>  <fragmenstein_mode>  (1189) 
expansion

>  <fragmenstein_error>  (1189) 


$$$$
C72676-P65
     RDKit          3D

 32 34  0  0  0  0  0  0  0  0999 V2000
    2.9624   -3.7881   12.7267 O   0  0  0  0  0  0  0  0  0  0  0  0
    3.4848   -3.1423   11.5325 S   0  0  0  0  0  0  0  0  0  0  0  0
    3.6800   -3.9505   10.3704 O   0  0  0  0  0  0  0  0  0  0  0  0
    1.8766   -1.7313   10.8410 N   0  0  0  0  0  0  0  0  0  0  0  0
    0.4105   -1.3745    9.4827 C   0  0  0  0  0  0  0  0  0  0  0  0
   -1.6096   -1.4180    8.8748 C   0  0  0  0  0  0  0  0  0  0  0  0
   -2.5175   -2.4208    8.8418 N   0  0  0  0  0  0  0  0  0  0  0  0
   -3.1845   -2.6336    7.6835 N   0  0  0  0  0  0  0  0  0  0  0  0
   -3.0829   -1.5489    6.9910 C   0  0  0  0  0  0  0  0  0  0  0  0
   -2.4871   -0.6040    7.8282 N   0  0  0  0  0  0  0  0  0  0  0  0
   -3.4802    0.4208    8.1655 C   0  0  0  0  0  0  0  0  0  0  0  0
   -4.5712    0.7274    7.1076 C   0  0  0  0  0  0  0  0  0  0  0  0
   -5.1076   -0.4164    6.3740 N   0  0  0  0  0  0  0  0  0  0  0  0
   -3.9859   -1.2069    5.8620 C   0  0  0  0  0  0  0  0  0  0  0  0
    5.5844   -2.6319   12.2813 C   0  0  0  0  0  0  0  0  0  0  0  0
    6.0325   -2.5598   14.4174 S   0  0  0  0  0  0  0  0  0  0  0  0
    7.5727   -1.9818   14.3321 C   0  0  0  0  0  0  0  0  0  0  0  0
    7.5362   -1.2017   13.2425 C   0  0  0  0  0  0  0  0  0  0  0  0
    6.6744   -1.5544   12.1906 C   0  0  0  0  0  0  0  0  0  0  0  0
    7.1059   -0.9186   11.1033 F   0  0  0  0  0  0  0  0  0  0  0  0
    2.3111   -2.1588   10.0080 H   0  0  0  0  0  0  0  0  0  0  0  0
   -0.0383   -1.2235   10.5417 H   0  0  0  0  0  0  0  0  0  0  0  0
    0.8369   -2.2579    9.0026 H   0  0  0  0  0  0  0  0  0  0  0  0
   -3.9438    0.0463    9.0699 H   0  0  0  0  0  0  0  0  0  0  0  0
   -2.9609    1.3594    8.2903 H   0  0  0  0  0  0  0  0  0  0  0  0
   -5.3992    1.2658    7.5783 H   0  0  0  0  0  0  0  0  0  0  0  0
   -4.1668    1.4299    6.3786 H   0  0  0  0  0  0  0  0  0  0  0  0
   -5.6131   -1.0169    7.0350 H   0  0  0  0  0  0  0  0  0  0  0  0
   -3.4627   -0.6638    5.0719 H   0  0  0  0  0  0  0  0  0  0  0  0
   -4.3761   -2.1229    5.4044 H   0  0  0  0  0  0  0  0  0  0  0  0
    8.2670   -1.9432   15.1590 H   0  0  0  0  0  0  0  0  0  0  0  0
    8.2306   -0.3751   13.1237 H   0  0  0  0  0  0  0  0  0  0  0  0
  1  2  2  0
  2  3  2  0
  2  4  1  0
  4  5  1  0
  5  6  1  0
  6  7  2  0
  7  8  1  0
  8  9  2  0
  9 10  1  0
 10 11  1  0
 11 12  1  0
 12 13  1  0
 13 14  1  0
  2 15  1  0
 15 16  1  0
 16 17  1  0
 17 18  2  0
 18 19  1  0
 19 20  1  0
 10  6  1  0
 19 15  2  0
 14  9  1  0
  4 21  1  0
  5 22  1  0
  5 23  1  0
 11 24  1  0
 11 25  1  0
 12 26  1  0
 12 27  1  0
 13 28  1  0
 14 29  1  0
 14 30  1  0
 17 31  1  0
 18 32  1  0
M  END
>  <Energy>  (1190) 
531.59120124094056

>  <compound_id>  (1190) 
72676

>  <target_id>  (1190) 
1

>  <reference_id>  (1190) 
65

>  <inspiration_ids>  (1190) 
[66, 65]

>  <energy_score>  (1190) 
541.8621443086327

>  <distance_score>  (1190) 
7.2824550602719205

>  <path>  (1190) 
/opt/xchem-fragalysis-2/maxwin/BulkDock/SCRATCH/511017/C72676-P65/C72676-P65.minimised.mol

>  <scratch_subdir>  (1190) 
/opt/xchem-fragalysis-2/maxwin/BulkDock/SCRATCH/511017/C72676-P65

>  <fragmenstein_runtime>  (1190) 
5.067684888839722

>  <fragmenstein_outcome>  (1190) 
too moved

>  <fragmenstein_mode>  (1190) 
expansion

>  <fragmenstein_error>  (1190) 


$$$$
C72680-P66
     RDKit          3D

 41 43  0  0  0  0  0  0  0  0999 V2000
    0.8830   -0.6308   13.6418 O   0  0  0  0  0  0  0  0  0  0  0  0
    0.4287   -1.7063   13.3452 C   0  0  0  0  0  0  0  0  0  0  0  0
    1.8792   -3.1823   13.6409 C   0  0  0  0  0  0  0  0  0  0  0  0
    3.6747   -3.2200   13.4125 O   0  0  0  0  0  0  0  0  0  0  0  0
    5.1991   -2.7837   14.4739 C   0  0  0  0  0  0  0  0  0  0  0  0
    6.9004   -2.0831   14.1874 C   0  0  0  0  0  0  0  0  0  0  0  0
    8.5029   -1.6582   14.6734 C   0  0  0  0  0  0  0  0  0  0  0  0
    9.0839   -0.4067   14.2519 C   0  0  0  0  0  0  0  0  0  0  0  0
   10.5449   -0.2631   14.2354 C   0  0  0  0  0  0  0  0  0  0  0  0
   11.1198   -1.4235   14.6525 C   0  0  0  0  0  0  0  0  0  0  0  0
   12.8006   -1.7433   14.7599 Cl  0  0  0  0  0  0  0  0  0  0  0  0
   10.0021   -2.6386   14.9578 S   0  0  0  0  0  0  0  0  0  0  0  0
   -1.3718   -1.8470   12.5482 N   0  0  0  0  0  0  0  0  0  0  0  0
   -2.5893   -0.6042   12.2666 C   0  0  0  0  0  0  0  0  0  0  0  0
   -4.3311   -0.5710   11.2764 C   0  0  0  0  0  0  0  0  0  0  0  0
   -5.6780   -0.5133   11.7678 N   0  0  0  0  0  0  0  0  0  0  0  0
   -6.7107   -0.4509   10.4903 N   0  0  0  0  0  0  0  0  0  0  0  0
   -5.9974   -0.5596    9.3558 C   0  0  0  0  0  0  0  0  0  0  0  0
   -4.5718   -0.6436    9.6815 N   0  0  0  0  0  0  0  0  0  0  0  0
   -3.6015   -0.6431    8.6272 C   0  0  0  0  0  0  0  0  0  0  0  0
   -4.2699   -1.0308    7.3363 C   0  0  0  0  0  0  0  0  0  0  0  0
   -5.4920   -0.2951    6.9999 N   0  0  0  0  0  0  0  0  0  0  0  0
   -6.5287   -0.6309    7.9764 C   0  0  0  0  0  0  0  0  0  0  0  0
    1.8965   -4.0792   12.9924 H   0  0  0  0  0  0  0  0  0  0  0  0
    1.7120   -3.7482   14.5496 H   0  0  0  0  0  0  0  0  0  0  0  0
    5.6687   -3.1156   13.5569 H   0  0  0  0  0  0  0  0  0  0  0  0
    5.0840   -3.4635   15.2892 H   0  0  0  0  0  0  0  0  0  0  0  0
    6.6932   -1.4285   15.0163 H   0  0  0  0  0  0  0  0  0  0  0  0
    6.8144   -1.5645   13.2185 H   0  0  0  0  0  0  0  0  0  0  0  0
    8.5204    0.2998   13.7074 H   0  0  0  0  0  0  0  0  0  0  0  0
   11.0808    0.6085   13.8871 H   0  0  0  0  0  0  0  0  0  0  0  0
   -1.6163   -2.8322   12.4470 H   0  0  0  0  0  0  0  0  0  0  0  0
   -1.7492    0.1030   12.1204 H   0  0  0  0  0  0  0  0  0  0  0  0
   -3.1679   -0.1327   13.0418 H   0  0  0  0  0  0  0  0  0  0  0  0
   -2.7999   -1.3665    8.7440 H   0  0  0  0  0  0  0  0  0  0  0  0
   -3.1639    0.3503    8.6347 H   0  0  0  0  0  0  0  0  0  0  0  0
   -3.4924   -0.8502    6.6076 H   0  0  0  0  0  0  0  0  0  0  0  0
   -4.4807   -2.1077    7.3125 H   0  0  0  0  0  0  0  0  0  0  0  0
   -5.3382    0.7054    7.0471 H   0  0  0  0  0  0  0  0  0  0  0  0
   -7.3696    0.0610    7.8612 H   0  0  0  0  0  0  0  0  0  0  0  0
   -6.9132   -1.6377    7.7791 H   0  0  0  0  0  0  0  0  0  0  0  0
  1  2  2  0
  2  3  1  0
  3  4  1  0
  4  5  1  0
  5  6  1  0
  6  7  1  0
  7  8  2  0
  8  9  1  0
  9 10  2  0
 10 11  1  0
 10 12  1  0
  2 13  1  0
 13 14  1  0
 14 15  1  0
 15 16  2  0
 16 17  1  0
 17 18  2  0
 18 19  1  0
 19 20  1  0
 20 21  1  0
 21 22  1  0
 22 23  1  0
 12  7  1  0
 19 15  1  0
 23 18  1  0
  3 24  1  0
  3 25  1  0
  5 26  1  0
  5 27  1  0
  6 28  1  0
  6 29  1  0
  8 30  1  0
  9 31  1  0
 13 32  1  0
 14 33  1  0
 14 34  1  0
 20 35  1  0
 20 36  1  0
 21 37  1  0
 21 38  1  0
 22 39  1  0
 23 40  1  0
 23 41  1  0
M  END
>  <Energy>  (1191) 
741.48605507460388

>  <compound_id>  (1191) 
72680

>  <target_id>  (1191) 
1

>  <reference_id>  (1191) 
66

>  <inspiration_ids>  (1191) 
[66, 65]

>  <energy_score>  (1191) 
636.2142238948809

>  <distance_score>  (1191) 
5.208286221418412

>  <path>  (1191) 
/opt/xchem-fragalysis-2/maxwin/BulkDock/SCRATCH/511017/C72680-P66/C72680-P66.minimised.mol

>  <scratch_subdir>  (1191) 
/opt/xchem-fragalysis-2/maxwin/BulkDock/SCRATCH/511017/C72680-P66

>  <fragmenstein_runtime>  (1191) 
9.101057291030884

>  <fragmenstein_outcome>  (1191) 
too moved

>  <fragmenstein_mode>  (1191) 
expansion

>  <fragmenstein_error>  (1191) 


$$$$
C72680-P65
     RDKit          3D

 41 43  0  0  0  0  0  0  0  0999 V2000
    3.5475   -3.0770    9.4023 O   0  0  0  0  0  0  0  0  0  0  0  0
    3.1871   -2.5081   10.4352 C   0  0  0  0  0  0  0  0  0  0  0  0
    4.2627   -2.9265   11.7546 C   0  0  0  0  0  0  0  0  0  0  0  0
    5.6152   -2.7505   12.2103 O   0  0  0  0  0  0  0  0  0  0  0  0
    6.6348   -1.6081   12.7510 C   0  0  0  0  0  0  0  0  0  0  0  0
    7.3218   -1.9299   14.2077 C   0  0  0  0  0  0  0  0  0  0  0  0
    8.5785   -1.2932   14.8607 C   0  0  0  0  0  0  0  0  0  0  0  0
    9.8266   -1.8911   15.1021 C   0  0  0  0  0  0  0  0  0  0  0  0
   10.8676   -0.9371   15.3237 C   0  0  0  0  0  0  0  0  0  0  0  0
   10.3236    0.3102   15.4198 C   0  0  0  0  0  0  0  0  0  0  0  0
   11.1177    1.8221   15.3900 Cl  0  0  0  0  0  0  0  0  0  0  0  0
    8.6535    0.2349   15.6235 S   0  0  0  0  0  0  0  0  0  0  0  0
    1.7357   -1.5473   10.6608 N   0  0  0  0  0  0  0  0  0  0  0  0
    0.2805   -1.2211    9.4880 C   0  0  0  0  0  0  0  0  0  0  0  0
   -1.6765   -1.3582    8.8292 C   0  0  0  0  0  0  0  0  0  0  0  0
   -2.7451   -2.1409    8.9986 N   0  0  0  0  0  0  0  0  0  0  0  0
   -3.9288   -1.3462    8.9371 N   0  0  0  0  0  0  0  0  0  0  0  0
   -3.6677   -0.2736    8.2371 C   0  0  0  0  0  0  0  0  0  0  0  0
   -2.4552   -0.6273    7.6772 N   0  0  0  0  0  0  0  0  0  0  0  0
   -2.8008   -1.3511    6.4270 C   0  0  0  0  0  0  0  0  0  0  0  0
   -3.9039   -0.7213    5.5348 C   0  0  0  0  0  0  0  0  0  0  0  0
   -5.0463   -0.1785    6.2536 N   0  0  0  0  0  0  0  0  0  0  0  0
   -4.6236    0.5591    7.4466 C   0  0  0  0  0  0  0  0  0  0  0  0
    4.3993   -3.9685   11.3994 H   0  0  0  0  0  0  0  0  0  0  0  0
    3.6318   -3.2955   12.5880 H   0  0  0  0  0  0  0  0  0  0  0  0
    7.3736   -1.5225   11.9619 H   0  0  0  0  0  0  0  0  0  0  0  0
    6.0981   -0.6922   12.7269 H   0  0  0  0  0  0  0  0  0  0  0  0
    7.6991   -2.9142   14.1453 H   0  0  0  0  0  0  0  0  0  0  0  0
    6.5183   -2.0329   14.9161 H   0  0  0  0  0  0  0  0  0  0  0  0
   10.0402   -2.9336   14.9085 H   0  0  0  0  0  0  0  0  0  0  0  0
   11.9274   -1.1566   15.3075 H   0  0  0  0  0  0  0  0  0  0  0  0
    1.7443   -1.1378   11.5843 H   0  0  0  0  0  0  0  0  0  0  0  0
    0.9832   -0.5954    8.9120 H   0  0  0  0  0  0  0  0  0  0  0  0
   -0.2260   -1.0199   10.4885 H   0  0  0  0  0  0  0  0  0  0  0  0
   -3.1593   -2.3432    6.7241 H   0  0  0  0  0  0  0  0  0  0  0  0
   -1.8765   -1.4164    5.8812 H   0  0  0  0  0  0  0  0  0  0  0  0
   -3.5004    0.0711    4.9078 H   0  0  0  0  0  0  0  0  0  0  0  0
   -4.2568   -1.4874    4.8342 H   0  0  0  0  0  0  0  0  0  0  0  0
   -5.6298    0.4015    5.6577 H   0  0  0  0  0  0  0  0  0  0  0  0
   -4.1484    1.5059    7.1653 H   0  0  0  0  0  0  0  0  0  0  0  0
   -5.5297    0.8008    7.9875 H   0  0  0  0  0  0  0  0  0  0  0  0
  1  2  2  0
  2  3  1  0
  3  4  1  0
  4  5  1  0
  5  6  1  0
  6  7  1  0
  7  8  2  0
  8  9  1  0
  9 10  2  0
 10 11  1  0
 10 12  1  0
  2 13  1  0
 13 14  1  0
 14 15  1  0
 15 16  2  0
 16 17  1  0
 17 18  2  0
 18 19  1  0
 19 20  1  0
 20 21  1  0
 21 22  1  0
 22 23  1  0
 12  7  1  0
 19 15  1  0
 23 18  1  0
  3 24  1  0
  3 25  1  0
  5 26  1  0
  5 27  1  0
  6 28  1  0
  6 29  1  0
  8 30  1  0
  9 31  1  0
 13 32  1  0
 14 33  1  0
 14 34  1  0
 20 35  1  0
 20 36  1  0
 21 37  1  0
 21 38  1  0
 22 39  1  0
 23 40  1  0
 23 41  1  0
M  END
>  <Energy>  (1192) 
491.07556509936774

>  <compound_id>  (1192) 
72680

>  <target_id>  (1192) 
1

>  <reference_id>  (1192) 
65

>  <inspiration_ids>  (1192) 
[66, 65]

>  <energy_score>  (1192) 
385.80373391964105

>  <distance_score>  (1192) 
5.203411242147564

>  <path>  (1192) 
/opt/xchem-fragalysis-2/maxwin/BulkDock/SCRATCH/511017/C72680-P65/C72680-P65.minimised.mol

>  <scratch_subdir>  (1192) 
/opt/xchem-fragalysis-2/maxwin/BulkDock/SCRATCH/511017/C72680-P65

>  <fragmenstein_runtime>  (1192) 
9.118260860443115

>  <fragmenstein_outcome>  (1192) 
too moved

>  <fragmenstein_mode>  (1192) 
expansion

>  <fragmenstein_error>  (1192) 


$$$$
C72681-P66
     RDKit          3D

 44 47  0  0  0  0  0  0  0  0999 V2000
    5.3973   -2.9581   14.0466 O   0  0  0  0  0  0  0  0  0  0  0  0
    5.4899   -2.8237   12.7702 C   0  0  0  0  0  0  0  0  0  0  0  0
    6.6583   -1.6654   12.4156 C   0  0  0  0  0  0  0  0  0  0  0  0
    7.7421   -1.3892   13.7908 C   0  0  0  0  0  0  0  0  0  0  0  0
    8.2782   -2.1814   14.7918 C   0  0  0  0  0  0  0  0  0  0  0  0
    9.7391   -2.0588   14.9958 C   0  0  0  0  0  0  0  0  0  0  0  0
   10.2723   -0.8973   14.4912 C   0  0  0  0  0  0  0  0  0  0  0  0
    8.9741    0.0865   13.8885 S   0  0  0  0  0  0  0  0  0  0  0  0
    4.6248   -3.8103   11.5464 N   0  0  0  0  0  0  0  0  0  0  0  0
    3.0392   -2.9673   11.1809 C   0  0  0  0  0  0  0  0  0  0  0  0
    1.5850   -1.7682   10.2810 C   0  0  0  0  0  0  0  0  0  0  0  0
    0.7430   -2.3196    8.8868 C   0  0  0  0  0  0  0  0  0  0  0  0
   -1.3107   -1.8081    8.3062 C   0  0  0  0  0  0  0  0  0  0  0  0
   -2.3285   -2.6508    8.0261 N   0  0  0  0  0  0  0  0  0  0  0  0
   -3.4130   -2.3061    8.6798 N   0  0  0  0  0  0  0  0  0  0  0  0
   -3.6088   -1.0213    8.7718 C   0  0  0  0  0  0  0  0  0  0  0  0
   -2.4947   -0.6391    7.9758 N   0  0  0  0  0  0  0  0  0  0  0  0
   -3.4476   -0.8063    6.7355 C   0  0  0  0  0  0  0  0  0  0  0  0
   -4.9023   -0.0432    6.5516 C   0  0  0  0  0  0  0  0  0  0  0  0
   -5.3362    0.5128    7.8029 N   0  0  0  0  0  0  0  0  0  0  0  0
   -5.0763   -0.6081    8.6855 C   0  0  0  0  0  0  0  0  0  0  0  0
    2.1830   -3.7269    8.8192 C   0  0  0  0  0  0  0  0  0  0  0  0
    3.0189   -3.7103   10.6681 C   0  0  0  0  0  0  0  0  0  0  0  0
    7.2326   -1.8540   11.5316 H   0  0  0  0  0  0  0  0  0  0  0  0
    6.1364   -0.7412   12.3160 H   0  0  0  0  0  0  0  0  0  0  0  0
    7.7524   -3.0341   15.1104 H   0  0  0  0  0  0  0  0  0  0  0  0
   10.3864   -2.8075   15.4343 H   0  0  0  0  0  0  0  0  0  0  0  0
   11.2943   -0.5476   14.4984 H   0  0  0  0  0  0  0  0  0  0  0  0
    2.7894   -3.2441   12.3975 H   0  0  0  0  0  0  0  0  0  0  0  0
    3.6529   -2.0883   11.4503 H   0  0  0  0  0  0  0  0  0  0  0  0
    1.7812   -0.7414    9.9703 H   0  0  0  0  0  0  0  0  0  0  0  0
    0.9025   -1.2840   10.9640 H   0  0  0  0  0  0  0  0  0  0  0  0
    1.3253   -2.0124    7.9459 H   0  0  0  0  0  0  0  0  0  0  0  0
   -2.8717   -0.6787    5.8458 H   0  0  0  0  0  0  0  0  0  0  0  0
   -3.8599   -1.8251    6.7654 H   0  0  0  0  0  0  0  0  0  0  0  0
   -4.8992    0.7046    5.7487 H   0  0  0  0  0  0  0  0  0  0  0  0
   -5.6565   -0.7724    6.2131 H   0  0  0  0  0  0  0  0  0  0  0  0
   -6.3447    0.6767    7.7709 H   0  0  0  0  0  0  0  0  0  0  0  0
   -5.5796   -0.4871    9.6080 H   0  0  0  0  0  0  0  0  0  0  0  0
   -5.6384   -1.4742    8.2953 H   0  0  0  0  0  0  0  0  0  0  0  0
    2.9522   -3.6100    8.0618 H   0  0  0  0  0  0  0  0  0  0  0  0
    1.6677   -4.6862    8.6461 H   0  0  0  0  0  0  0  0  0  0  0  0
    2.5970   -4.7032   11.1554 H   0  0  0  0  0  0  0  0  0  0  0  0
    3.6568   -4.4110   10.0997 H   0  0  0  0  0  0  0  0  0  0  0  0
  1  2  2  0
  2  3  1  0
  3  4  1  0
  4  5  2  0
  5  6  1  0
  6  7  2  0
  7  8  1  0
  2  9  1  0
  9 10  1  0
 10 11  1  0
 11 12  1  0
 12 13  1  0
 13 14  2  0
 14 15  1  0
 15 16  2  0
 16 17  1  0
 17 18  1  0
 18 19  1  0
 19 20  1  0
 20 21  1  0
 12 22  1  0
 22 23  1  0
  8  4  1  0
 23  9  1  0
 17 13  1  0
 21 16  1  0
  3 24  1  0
  3 25  1  0
  5 26  1  0
  6 27  1  0
  7 28  1  0
 10 29  1  0
 10 30  1  0
 11 31  1  0
 11 32  1  0
 12 33  1  0
 18 34  1  0
 18 35  1  0
 19 36  1  0
 19 37  1  0
 20 38  1  0
 21 39  1  0
 21 40  1  0
 22 41  1  0
 22 42  1  0
 23 43  1  0
 23 44  1  0
M  END
>  <Energy>  (1193) 
1368.0863564372858

>  <compound_id>  (1193) 
72681

>  <target_id>  (1193) 
1

>  <reference_id>  (1193) 
66

>  <inspiration_ids>  (1193) 
[66, 65]

>  <energy_score>  (1193) 
1290.0488977478126

>  <distance_score>  (1193) 
5.790822162259209

>  <path>  (1193) 
/opt/xchem-fragalysis-2/maxwin/BulkDock/SCRATCH/511017/C72681-P66/C72681-P66.minimised.mol

>  <scratch_subdir>  (1193) 
/opt/xchem-fragalysis-2/maxwin/BulkDock/SCRATCH/511017/C72681-P66

>  <fragmenstein_runtime>  (1193) 
12.74946665763855

>  <fragmenstein_outcome>  (1193) 
too moved

>  <fragmenstein_mode>  (1193) 
expansion

>  <fragmenstein_error>  (1193) 


$$$$
C72681-P65
     RDKit          3D

 44 47  0  0  0  0  0  0  0  0999 V2000
    4.0542   -3.8564   12.4430 O   0  0  0  0  0  0  0  0  0  0  0  0
    4.4480   -2.8567   11.8485 C   0  0  0  0  0  0  0  0  0  0  0  0
    6.1813   -1.9668   12.2390 C   0  0  0  0  0  0  0  0  0  0  0  0
    7.1420   -1.5881   13.4586 C   0  0  0  0  0  0  0  0  0  0  0  0
    8.0795   -0.5438   13.3537 C   0  0  0  0  0  0  0  0  0  0  0  0
    8.9528   -0.2417   14.4711 C   0  0  0  0  0  0  0  0  0  0  0  0
    8.7278   -1.1728   15.4274 C   0  0  0  0  0  0  0  0  0  0  0  0
    7.5403   -2.2556   14.9087 S   0  0  0  0  0  0  0  0  0  0  0  0
    3.3719   -2.3699   10.9188 N   0  0  0  0  0  0  0  0  0  0  0  0
    2.0785   -1.1697   11.3760 C   0  0  0  0  0  0  0  0  0  0  0  0
    0.7988   -1.5662   10.7164 C   0  0  0  0  0  0  0  0  0  0  0  0
    0.3516   -1.4541    9.2186 C   0  0  0  0  0  0  0  0  0  0  0  0
   -1.6600   -1.4411    8.7055 C   0  0  0  0  0  0  0  0  0  0  0  0
   -2.7541   -2.1494    8.9813 N   0  0  0  0  0  0  0  0  0  0  0  0
   -3.8896   -1.2940    8.9371 N   0  0  0  0  0  0  0  0  0  0  0  0
   -3.5783   -0.2519    8.2070 C   0  0  0  0  0  0  0  0  0  0  0  0
   -2.4445   -0.7284    7.5723 N   0  0  0  0  0  0  0  0  0  0  0  0
   -2.9330   -1.4531    6.3751 C   0  0  0  0  0  0  0  0  0  0  0  0
   -4.2329   -0.9027    5.7358 C   0  0  0  0  0  0  0  0  0  0  0  0
   -4.5049    0.5011    6.0477 N   0  0  0  0  0  0  0  0  0  0  0  0
   -4.5230    0.6760    7.5119 C   0  0  0  0  0  0  0  0  0  0  0  0
    1.6726   -2.4265    8.2158 C   0  0  0  0  0  0  0  0  0  0  0  0
    3.2823   -2.9656    9.2707 C   0  0  0  0  0  0  0  0  0  0  0  0
    6.9488   -2.1562   11.4850 H   0  0  0  0  0  0  0  0  0  0  0  0
    5.9185   -0.9113   12.1381 H   0  0  0  0  0  0  0  0  0  0  0  0
    8.1693   -0.0483   12.4147 H   0  0  0  0  0  0  0  0  0  0  0  0
    9.7156    0.5240   14.4976 H   0  0  0  0  0  0  0  0  0  0  0  0
    9.2533   -1.2629   16.3604 H   0  0  0  0  0  0  0  0  0  0  0  0
    1.6657   -1.0379   12.4095 H   0  0  0  0  0  0  0  0  0  0  0  0
    2.4846   -0.1332   11.2938 H   0  0  0  0  0  0  0  0  0  0  0  0
    1.6360   -1.2873   10.0972 H   0  0  0  0  0  0  0  0  0  0  0  0
    0.0037   -1.0964   11.3084 H   0  0  0  0  0  0  0  0  0  0  0  0
    0.8582   -0.4915    8.9334 H   0  0  0  0  0  0  0  0  0  0  0  0
   -2.1300   -1.4099    5.6574 H   0  0  0  0  0  0  0  0  0  0  0  0
   -3.1598   -2.4742    6.6952 H   0  0  0  0  0  0  0  0  0  0  0  0
   -4.1835   -1.0358    4.6488 H   0  0  0  0  0  0  0  0  0  0  0  0
   -5.0866   -1.5109    6.0645 H   0  0  0  0  0  0  0  0  0  0  0  0
   -3.7857    1.0880    5.6367 H   0  0  0  0  0  0  0  0  0  0  0  0
   -5.5486    0.4784    7.8285 H   0  0  0  0  0  0  0  0  0  0  0  0
   -4.2775    1.7146    7.7469 H   0  0  0  0  0  0  0  0  0  0  0  0
    1.9238   -1.8005    7.3687 H   0  0  0  0  0  0  0  0  0  0  0  0
    1.4152   -3.4589    8.1390 H   0  0  0  0  0  0  0  0  0  0  0  0
    4.0183   -3.4193    8.6432 H   0  0  0  0  0  0  0  0  0  0  0  0
    3.3176   -3.9539    9.6382 H   0  0  0  0  0  0  0  0  0  0  0  0
  1  2  2  0
  2  3  1  0
  3  4  1  0
  4  5  2  0
  5  6  1  0
  6  7  2  0
  7  8  1  0
  2  9  1  0
  9 10  1  0
 10 11  1  0
 11 12  1  0
 12 13  1  0
 13 14  2  0
 14 15  1  0
 15 16  2  0
 16 17  1  0
 17 18  1  0
 18 19  1  0
 19 20  1  0
 20 21  1  0
 12 22  1  0
 22 23  1  0
  8  4  1  0
 23  9  1  0
 17 13  1  0
 21 16  1  0
  3 24  1  0
  3 25  1  0
  5 26  1  0
  6 27  1  0
  7 28  1  0
 10 29  1  0
 10 30  1  0
 11 31  1  0
 11 32  1  0
 12 33  1  0
 18 34  1  0
 18 35  1  0
 19 36  1  0
 19 37  1  0
 20 38  1  0
 21 39  1  0
 21 40  1  0
 22 41  1  0
 22 42  1  0
 23 43  1  0
 23 44  1  0
M  END
>  <Energy>  (1194) 
630.34661665037686

>  <compound_id>  (1194) 
72681

>  <target_id>  (1194) 
1

>  <reference_id>  (1194) 
65

>  <inspiration_ids>  (1194) 
[66, 65]

>  <energy_score>  (1194) 
552.3091579609022

>  <distance_score>  (1194) 
6.037063849475832

>  <path>  (1194) 
/opt/xchem-fragalysis-2/maxwin/BulkDock/SCRATCH/511017/C72681-P65/C72681-P65.minimised.mol

>  <scratch_subdir>  (1194) 
/opt/xchem-fragalysis-2/maxwin/BulkDock/SCRATCH/511017/C72681-P65

>  <fragmenstein_runtime>  (1194) 
11.670612812042236

>  <fragmenstein_outcome>  (1194) 
too moved

>  <fragmenstein_mode>  (1194) 
expansion

>  <fragmenstein_error>  (1194) 


$$$$
C72683-P66
     RDKit          3D

 41 44  0  0  0  0  0  0  0  0999 V2000
    5.6124   -0.3640   13.2042 O   0  0  0  0  0  0  0  0  0  0  0  0
    5.7937   -0.8709   12.2303 C   0  0  0  0  0  0  0  0  0  0  0  0
    7.0013   -1.5158   12.2965 C   0  0  0  0  0  0  0  0  0  0  0  0
    6.9145   -2.3256   13.6004 C   0  0  0  0  0  0  0  0  0  0  0  0
    7.8289   -2.1946   14.5866 C   0  0  0  0  0  0  0  0  0  0  0  0
    8.4506   -0.6875   14.4859 S   0  0  0  0  0  0  0  0  0  0  0  0
    7.8966   -0.5728   12.8511 C   0  0  0  0  0  0  0  0  0  0  0  0
    4.6359   -0.8247   11.1555 N   0  0  0  0  0  0  0  0  0  0  0  0
    3.0477    0.0421   11.1263 C   0  0  0  0  0  0  0  0  0  0  0  0
    1.6675   -0.5599    9.9451 C   0  0  0  0  0  0  0  0  0  0  0  0
    0.5190   -1.5537    9.8703 C   0  0  0  0  0  0  0  0  0  0  0  0
   -1.4263   -1.1946    8.9480 C   0  0  0  0  0  0  0  0  0  0  0  0
   -2.0077    0.0312    8.8587 N   0  0  0  0  0  0  0  0  0  0  0  0
   -3.3097    0.1715    8.7928 N   0  0  0  0  0  0  0  0  0  0  0  0
   -3.7156   -0.8682    8.1789 C   0  0  0  0  0  0  0  0  0  0  0  0
   -2.6939   -1.8587    8.1956 N   0  0  0  0  0  0  0  0  0  0  0  0
   -3.2565   -3.1466    7.7994 C   0  0  0  0  0  0  0  0  0  0  0  0
   -4.6774   -3.1325    7.0622 C   0  0  0  0  0  0  0  0  0  0  0  0
   -5.6543   -2.1426    7.4366 N   0  0  0  0  0  0  0  0  0  0  0  0
   -5.0677   -0.8518    7.5752 C   0  0  0  0  0  0  0  0  0  0  0  0
    2.2352   -2.6730   10.2955 C   0  0  0  0  0  0  0  0  0  0  0  0
    3.4947   -2.3806   11.3634 C   0  0  0  0  0  0  0  0  0  0  0  0
    6.0239   -2.8706   13.8506 H   0  0  0  0  0  0  0  0  0  0  0  0
    7.9215   -2.8139   15.4197 H   0  0  0  0  0  0  0  0  0  0  0  0
    8.3246    0.3084   12.5068 H   0  0  0  0  0  0  0  0  0  0  0  0
    3.4061    0.9494   10.5995 H   0  0  0  0  0  0  0  0  0  0  0  0
    2.6873    0.4949   12.0698 H   0  0  0  0  0  0  0  0  0  0  0  0
    1.6472    0.3961    9.4319 H   0  0  0  0  0  0  0  0  0  0  0  0
    1.6111   -0.9682   10.9878 H   0  0  0  0  0  0  0  0  0  0  0  0
    0.0464   -1.2067   10.7698 H   0  0  0  0  0  0  0  0  0  0  0  0
   -3.2088   -3.8168    8.6346 H   0  0  0  0  0  0  0  0  0  0  0  0
   -2.6490   -3.7694    7.1822 H   0  0  0  0  0  0  0  0  0  0  0  0
   -5.1830   -4.0626    7.2171 H   0  0  0  0  0  0  0  0  0  0  0  0
   -4.5846   -3.1567    5.9917 H   0  0  0  0  0  0  0  0  0  0  0  0
   -6.4579   -2.1258    6.8114 H   0  0  0  0  0  0  0  0  0  0  0  0
   -5.0382   -0.3325    6.6141 H   0  0  0  0  0  0  0  0  0  0  0  0
   -5.7308   -0.2485    8.2069 H   0  0  0  0  0  0  0  0  0  0  0  0
    2.6033   -3.3843    9.4533 H   0  0  0  0  0  0  0  0  0  0  0  0
    2.2809   -3.6602   10.9063 H   0  0  0  0  0  0  0  0  0  0  0  0
    4.0851   -3.2756   11.1314 H   0  0  0  0  0  0  0  0  0  0  0  0
    3.5034   -2.9529   12.3368 H   0  0  0  0  0  0  0  0  0  0  0  0
  1  2  2  0
  2  3  1  0
  3  4  1  0
  4  5  2  0
  5  6  1  0
  6  7  1  0
  2  8  1  0
  8  9  1  0
  9 10  1  0
 10 11  1  0
 11 12  1  0
 12 13  2  0
 13 14  1  0
 14 15  2  0
 15 16  1  0
 16 17  1  0
 17 18  1  0
 18 19  1  0
 19 20  1  0
 11 21  1  0
 21 22  1  0
  7  3  2  0
 22  8  1  0
 16 12  1  0
 20 15  1  0
  4 23  1  0
  5 24  1  0
  7 25  1  0
  9 26  1  0
  9 27  1  0
 10 28  1  0
 10 29  1  0
 11 30  1  0
 17 31  1  0
 17 32  1  0
 18 33  1  0
 18 34  1  0
 19 35  1  0
 20 36  1  0
 20 37  1  0
 21 38  1  0
 21 39  1  0
 22 40  1  0
 22 41  1  0
M  END
>  <Energy>  (1195) 
904.82439025176666

>  <compound_id>  (1195) 
72683

>  <target_id>  (1195) 
1

>  <reference_id>  (1195) 
66

>  <inspiration_ids>  (1195) 
[66, 65]

>  <energy_score>  (1195) 
849.542398076544

>  <distance_score>  (1195) 
5.44083028506106

>  <path>  (1195) 
/opt/xchem-fragalysis-2/maxwin/BulkDock/SCRATCH/511017/C72683-P66/C72683-P66.minimised.mol

>  <scratch_subdir>  (1195) 
/opt/xchem-fragalysis-2/maxwin/BulkDock/SCRATCH/511017/C72683-P66

>  <fragmenstein_runtime>  (1195) 
11.649071216583252

>  <fragmenstein_outcome>  (1195) 
too moved

>  <fragmenstein_mode>  (1195) 
expansion

>  <fragmenstein_error>  (1195) 


$$$$
C72683-P65
     RDKit          3D

 41 44  0  0  0  0  0  0  0  0999 V2000
    5.7369    3.5597   10.7680 O   0  0  0  0  0  0  0  0  0  0  0  0
    4.6047    3.8766   10.9814 C   0  0  0  0  0  0  0  0  0  0  0  0
    4.4716    4.7161   12.1962 C   0  0  0  0  0  0  0  0  0  0  0  0
    3.3820    4.8271   13.1111 C   0  0  0  0  0  0  0  0  0  0  0  0
    3.7557    5.3923   14.3139 C   0  0  0  0  0  0  0  0  0  0  0  0
    5.3931    5.8739   14.3318 S   0  0  0  0  0  0  0  0  0  0  0  0
    5.5933    5.3578   12.7203 C   0  0  0  0  0  0  0  0  0  0  0  0
    3.3993    3.4991   10.3222 N   0  0  0  0  0  0  0  0  0  0  0  0
    3.1757    2.6651    9.0669 C   0  0  0  0  0  0  0  0  0  0  0  0
    1.8926    1.9162    8.4740 C   0  0  0  0  0  0  0  0  0  0  0  0
    1.5444    0.2299    8.9853 C   0  0  0  0  0  0  0  0  0  0  0  0
   -0.1196   -0.9098    9.3978 C   0  0  0  0  0  0  0  0  0  0  0  0
   -0.8402   -1.0529   10.5882 N   0  0  0  0  0  0  0  0  0  0  0  0
   -2.2554   -1.5944    9.5108 N   0  0  0  0  0  0  0  0  0  0  0  0
   -2.8961   -0.5688    8.9967 C   0  0  0  0  0  0  0  0  0  0  0  0
   -1.7793   -1.0069    8.4024 N   0  0  0  0  0  0  0  0  0  0  0  0
   -2.1976   -1.6524    7.0708 C   0  0  0  0  0  0  0  0  0  0  0  0
   -3.5088   -1.2434    6.3680 C   0  0  0  0  0  0  0  0  0  0  0  0
   -3.9932    0.0091    6.8684 N   0  0  0  0  0  0  0  0  0  0  0  0
   -4.1374   -0.1876    8.3109 C   0  0  0  0  0  0  0  0  0  0  0  0
    2.6552    0.8135   10.4963 C   0  0  0  0  0  0  0  0  0  0  0  0
    2.8189    2.2961   10.9774 C   0  0  0  0  0  0  0  0  0  0  0  0
    2.3945    4.4169   12.9503 H   0  0  0  0  0  0  0  0  0  0  0  0
    3.1397    5.5291   15.1912 H   0  0  0  0  0  0  0  0  0  0  0  0
    6.5593    5.4519   12.2434 H   0  0  0  0  0  0  0  0  0  0  0  0
    4.1065    2.1114    8.8586 H   0  0  0  0  0  0  0  0  0  0  0  0
    3.2963    3.4780    8.3284 H   0  0  0  0  0  0  0  0  0  0  0  0
    2.1549    1.8313    7.4186 H   0  0  0  0  0  0  0  0  0  0  0  0
    1.1333    2.6789    8.6211 H   0  0  0  0  0  0  0  0  0  0  0  0
    1.8648   -0.3323    8.1065 H   0  0  0  0  0  0  0  0  0  0  0  0
   -1.4344   -1.4888    6.3307 H   0  0  0  0  0  0  0  0  0  0  0  0
   -2.4157   -2.6775    7.3643 H   0  0  0  0  0  0  0  0  0  0  0  0
   -4.2633   -2.0319    6.5016 H   0  0  0  0  0  0  0  0  0  0  0  0
   -3.3508   -1.1864    5.2848 H   0  0  0  0  0  0  0  0  0  0  0  0
   -4.9147    0.2121    6.4814 H   0  0  0  0  0  0  0  0  0  0  0  0
   -4.3778    0.8168    8.6292 H   0  0  0  0  0  0  0  0  0  0  0  0
   -4.9507   -0.8844    8.5321 H   0  0  0  0  0  0  0  0  0  0  0  0
    2.4235    0.1852   11.3726 H   0  0  0  0  0  0  0  0  0  0  0  0
    3.7462    0.7818   10.3413 H   0  0  0  0  0  0  0  0  0  0  0  0
    1.9554    2.6971   11.5319 H   0  0  0  0  0  0  0  0  0  0  0  0
    3.4712    2.1312   11.8562 H   0  0  0  0  0  0  0  0  0  0  0  0
  1  2  2  0
  2  3  1  0
  3  4  1  0
  4  5  2  0
  5  6  1  0
  6  7  1  0
  2  8  1  0
  8  9  1  0
  9 10  1  0
 10 11  1  0
 11 12  1  0
 12 13  2  0
 13 14  1  0
 14 15  2  0
 15 16  1  0
 16 17  1  0
 17 18  1  0
 18 19  1  0
 19 20  1  0
 11 21  1  0
 21 22  1  0
  7  3  2  0
 22  8  1  0
 16 12  1  0
 20 15  1  0
  4 23  1  0
  5 24  1  0
  7 25  1  0
  9 26  1  0
  9 27  1  0
 10 28  1  0
 10 29  1  0
 11 30  1  0
 17 31  1  0
 17 32  1  0
 18 33  1  0
 18 34  1  0
 19 35  1  0
 20 36  1  0
 20 37  1  0
 21 38  1  0
 21 39  1  0
 22 40  1  0
 22 41  1  0
M  END
>  <Energy>  (1196) 
623.79214615162937

>  <compound_id>  (1196) 
72683

>  <target_id>  (1196) 
1

>  <reference_id>  (1196) 
65

>  <inspiration_ids>  (1196) 
[66, 65]

>  <energy_score>  (1196) 
568.5101539763937

>  <distance_score>  (1196) 
8.238915797079589

>  <path>  (1196) 
/opt/xchem-fragalysis-2/maxwin/BulkDock/SCRATCH/511017/C72683-P65/C72683-P65.minimised.mol

>  <scratch_subdir>  (1196) 
/opt/xchem-fragalysis-2/maxwin/BulkDock/SCRATCH/511017/C72683-P65

>  <fragmenstein_runtime>  (1196) 
8.154650211334229

>  <fragmenstein_outcome>  (1196) 
too moved

>  <fragmenstein_mode>  (1196) 
expansion

>  <fragmenstein_error>  (1196) 


$$$$
C72684-P66
     RDKit          3D

 38 40  0  0  0  0  0  0  0  0999 V2000
   10.3496    0.0325   13.4553 C   0  0  0  0  0  0  0  0  0  0  0  0
    8.8427    0.1982   12.9698 C   0  0  0  0  0  0  0  0  0  0  0  0
    7.5431   -0.6576   12.0362 O   0  0  0  0  0  0  0  0  0  0  0  0
    6.6400   -1.5931   12.6173 C   0  0  0  0  0  0  0  0  0  0  0  0
    7.3975   -1.4885   14.1797 S   0  0  0  0  0  0  0  0  0  0  0  0
    6.8001   -2.8004   14.6411 C   0  0  0  0  0  0  0  0  0  0  0  0
    5.5395   -2.8513   14.2186 C   0  0  0  0  0  0  0  0  0  0  0  0
    5.2464   -2.6994   12.4604 C   0  0  0  0  0  0  0  0  0  0  0  0
    3.4587   -2.6837   11.5048 C   0  0  0  0  0  0  0  0  0  0  0  0
    3.2982   -3.7353   10.9464 O   0  0  0  0  0  0  0  0  0  0  0  0
    2.0811   -1.2900   11.2047 N   0  0  0  0  0  0  0  0  0  0  0  0
    0.4836   -1.2395   10.0052 C   0  0  0  0  0  0  0  0  0  0  0  0
   -1.4887   -1.0317    9.1674 C   0  0  0  0  0  0  0  0  0  0  0  0
   -2.3810   -2.0651    8.8169 N   0  0  0  0  0  0  0  0  0  0  0  0
   -3.7332   -1.6166    9.0737 N   0  0  0  0  0  0  0  0  0  0  0  0
   -3.8334   -0.3270    8.8469 C   0  0  0  0  0  0  0  0  0  0  0  0
   -2.5432   -0.2283    8.2381 N   0  0  0  0  0  0  0  0  0  0  0  0
   -3.0329   -1.0524    6.9625 C   0  0  0  0  0  0  0  0  0  0  0  0
   -4.5566   -1.8072    6.9810 C   0  0  0  0  0  0  0  0  0  0  0  0
   -5.5656   -0.7495    7.0787 N   0  0  0  0  0  0  0  0  0  0  0  0
   -5.1881    0.0872    8.2284 C   0  0  0  0  0  0  0  0  0  0  0  0
   10.5320   -0.8024   14.1414 H   0  0  0  0  0  0  0  0  0  0  0  0
   10.6130    0.9372   14.0217 H   0  0  0  0  0  0  0  0  0  0  0  0
   11.0574    0.0135   12.6361 H   0  0  0  0  0  0  0  0  0  0  0  0
    9.0573    1.0412   12.3656 H   0  0  0  0  0  0  0  0  0  0  0  0
    8.4493    0.4503   13.9356 H   0  0  0  0  0  0  0  0  0  0  0  0
    7.4662   -3.1013   15.4031 H   0  0  0  0  0  0  0  0  0  0  0  0
    4.8077   -3.2385   14.8928 H   0  0  0  0  0  0  0  0  0  0  0  0
    2.3818   -0.4340   11.6615 H   0  0  0  0  0  0  0  0  0  0  0  0
    0.0160   -1.0760   10.9311 H   0  0  0  0  0  0  0  0  0  0  0  0
    0.8798   -2.0716    9.4482 H   0  0  0  0  0  0  0  0  0  0  0  0
   -3.0828   -0.4488    6.0800 H   0  0  0  0  0  0  0  0  0  0  0  0
   -2.1130   -1.6232    6.9141 H   0  0  0  0  0  0  0  0  0  0  0  0
   -4.8005   -2.4904    6.1688 H   0  0  0  0  0  0  0  0  0  0  0  0
   -4.7193   -2.5805    7.7073 H   0  0  0  0  0  0  0  0  0  0  0  0
   -6.4653   -1.1904    7.2777 H   0  0  0  0  0  0  0  0  0  0  0  0
   -5.9827   -0.0624    8.9630 H   0  0  0  0  0  0  0  0  0  0  0  0
   -5.2135    1.1177    7.8837 H   0  0  0  0  0  0  0  0  0  0  0  0
  1  2  1  0
  2  3  1  0
  3  4  1  0
  4  5  1  0
  5  6  1  0
  6  7  2  0
  7  8  1  0
  8  9  1  0
  9 10  2  0
  9 11  1  0
 11 12  1  0
 12 13  1  0
 13 14  2  0
 14 15  1  0
 15 16  2  0
 16 17  1  0
 17 18  1  0
 18 19  1  0
 19 20  1  0
 20 21  1  0
  8  4  2  0
 17 13  1  0
 21 16  1  0
  1 22  1  0
  1 23  1  0
  1 24  1  0
  2 25  1  0
  2 26  1  0
  6 27  1  0
  7 28  1  0
 11 29  1  0
 12 30  1  0
 12 31  1  0
 18 32  1  0
 18 33  1  0
 19 34  1  0
 19 35  1  0
 20 36  1  0
 21 37  1  0
 21 38  1  0
M  END
>  <Energy>  (1197) 
1026.8037707867004

>  <compound_id>  (1197) 
72684

>  <target_id>  (1197) 
1

>  <reference_id>  (1197) 
66

>  <inspiration_ids>  (1197) 
[66, 65]

>  <energy_score>  (1197) 
982.9207573982737

>  <distance_score>  (1197) 
6.145579946412874

>  <path>  (1197) 
/opt/xchem-fragalysis-2/maxwin/BulkDock/SCRATCH/511017/C72684-P66/C72684-P66.minimised.mol

>  <scratch_subdir>  (1197) 
/opt/xchem-fragalysis-2/maxwin/BulkDock/SCRATCH/511017/C72684-P66

>  <fragmenstein_runtime>  (1197) 
7.444149017333984

>  <fragmenstein_outcome>  (1197) 
too moved

>  <fragmenstein_mode>  (1197) 
expansion

>  <fragmenstein_error>  (1197) 


$$$$
C72684-P65
     RDKit          3D

 38 40  0  0  0  0  0  0  0  0999 V2000
    8.9893   -0.3543   16.2232 C   0  0  0  0  0  0  0  0  0  0  0  0
    7.4734   -0.5355   16.1696 C   0  0  0  0  0  0  0  0  0  0  0  0
    6.7257   -1.0645   14.9830 O   0  0  0  0  0  0  0  0  0  0  0  0
    6.5310   -2.1588   14.1360 C   0  0  0  0  0  0  0  0  0  0  0  0
    8.1748   -2.2805   14.1872 S   0  0  0  0  0  0  0  0  0  0  0  0
    7.8252   -0.8187   13.0026 C   0  0  0  0  0  0  0  0  0  0  0  0
    6.9816   -1.2796   12.0226 C   0  0  0  0  0  0  0  0  0  0  0  0
    6.0251   -2.2412   12.4810 C   0  0  0  0  0  0  0  0  0  0  0  0
    4.3257   -2.9599   11.8830 C   0  0  0  0  0  0  0  0  0  0  0  0
    4.0023   -4.1125   12.0729 O   0  0  0  0  0  0  0  0  0  0  0  0
    3.4837   -1.7340   11.2742 N   0  0  0  0  0  0  0  0  0  0  0  0
    1.6436   -1.5742   10.7874 C   0  0  0  0  0  0  0  0  0  0  0  0
    0.1782   -1.1261    9.4955 C   0  0  0  0  0  0  0  0  0  0  0  0
    0.1801   -2.1294    8.7565 N   0  0  0  0  0  0  0  0  0  0  0  0
   -1.6873   -2.3168    8.2831 N   0  0  0  0  0  0  0  0  0  0  0  0
   -2.6452   -1.8002    9.0098 C   0  0  0  0  0  0  0  0  0  0  0  0
   -1.6236   -1.0044    8.8250 N   0  0  0  0  0  0  0  0  0  0  0  0
   -2.2889   -0.5581    7.1948 C   0  0  0  0  0  0  0  0  0  0  0  0
   -3.2959    0.5369    7.2991 C   0  0  0  0  0  0  0  0  0  0  0  0
   -4.1593    0.1387    8.3586 N   0  0  0  0  0  0  0  0  0  0  0  0
   -4.0701   -1.2894    8.6810 C   0  0  0  0  0  0  0  0  0  0  0  0
    9.2511    0.2733   17.0822 H   0  0  0  0  0  0  0  0  0  0  0  0
    9.3630    0.1600   15.3320 H   0  0  0  0  0  0  0  0  0  0  0  0
    9.5377   -1.2900   16.3288 H   0  0  0  0  0  0  0  0  0  0  0  0
    7.1903    0.5285   16.1957 H   0  0  0  0  0  0  0  0  0  0  0  0
    6.9165   -0.7701   17.0670 H   0  0  0  0  0  0  0  0  0  0  0  0
    8.5584   -0.0189   13.0025 H   0  0  0  0  0  0  0  0  0  0  0  0
    7.0754   -0.8064   11.0680 H   0  0  0  0  0  0  0  0  0  0  0  0
    4.0417   -0.8730   11.3344 H   0  0  0  0  0  0  0  0  0  0  0  0
    1.0907   -1.3197   11.7080 H   0  0  0  0  0  0  0  0  0  0  0  0
    2.0702   -0.5688   10.8700 H   0  0  0  0  0  0  0  0  0  0  0  0
   -2.8934   -1.4409    6.8784 H   0  0  0  0  0  0  0  0  0  0  0  0
   -1.5883   -0.8385    6.4206 H   0  0  0  0  0  0  0  0  0  0  0  0
   -2.8855    1.5186    7.5234 H   0  0  0  0  0  0  0  0  0  0  0  0
   -3.8630    0.6067    6.3654 H   0  0  0  0  0  0  0  0  0  0  0  0
   -5.1292    0.4265    8.2435 H   0  0  0  0  0  0  0  0  0  0  0  0
   -4.5594   -1.8952    7.9079 H   0  0  0  0  0  0  0  0  0  0  0  0
   -4.6496   -1.3340    9.5648 H   0  0  0  0  0  0  0  0  0  0  0  0
  1  2  1  0
  2  3  1  0
  3  4  1  0
  4  5  1  0
  5  6  1  0
  6  7  2  0
  7  8  1  0
  8  9  1  0
  9 10  2  0
  9 11  1  0
 11 12  1  0
 12 13  1  0
 13 14  2  0
 14 15  1  0
 15 16  2  0
 16 17  1  0
 17 18  1  0
 18 19  1  0
 19 20  1  0
 20 21  1  0
  8  4  2  0
 17 13  1  0
 21 16  1  0
  1 22  1  0
  1 23  1  0
  1 24  1  0
  2 25  1  0
  2 26  1  0
  6 27  1  0
  7 28  1  0
 11 29  1  0
 12 30  1  0
 12 31  1  0
 18 32  1  0
 18 33  1  0
 19 34  1  0
 19 35  1  0
 20 36  1  0
 21 37  1  0
 21 38  1  0
M  END
>  <Energy>  (1198) 
951.44923340139474

>  <compound_id>  (1198) 
72684

>  <target_id>  (1198) 
1

>  <reference_id>  (1198) 
65

>  <inspiration_ids>  (1198) 
[66, 65]

>  <energy_score>  (1198) 
907.5662200129686

>  <distance_score>  (1198) 
6.403783725978997

>  <path>  (1198) 
/opt/xchem-fragalysis-2/maxwin/BulkDock/SCRATCH/511017/C72684-P65/C72684-P65.minimised.mol

>  <scratch_subdir>  (1198) 
/opt/xchem-fragalysis-2/maxwin/BulkDock/SCRATCH/511017/C72684-P65

>  <fragmenstein_runtime>  (1198) 
7.829746246337891

>  <fragmenstein_outcome>  (1198) 
too moved

>  <fragmenstein_mode>  (1198) 
expansion

>  <fragmenstein_error>  (1198) 


$$$$
C72685-P66
     RDKit          3D

 32 34  0  0  0  0  0  0  0  0999 V2000
    8.2724   -2.9108   14.7167 Cl  0  0  0  0  0  0  0  0  0  0  0  0
    6.2404   -2.8206   14.1214 C   0  0  0  0  0  0  0  0  0  0  0  0
    6.6380   -1.6077   14.5083 C   0  0  0  0  0  0  0  0  0  0  0  0
    7.3813   -0.8885   13.1601 S   0  0  0  0  0  0  0  0  0  0  0  0
    6.4505   -1.6764   12.1155 C   0  0  0  0  0  0  0  0  0  0  0  0
    5.4910   -2.7470   12.5117 C   0  0  0  0  0  0  0  0  0  0  0  0
    3.6722   -3.1023   11.7000 C   0  0  0  0  0  0  0  0  0  0  0  0
    2.2533   -2.5680   10.4323 N   0  0  0  0  0  0  0  0  0  0  0  0
    0.5555   -1.5012    9.9414 C   0  0  0  0  0  0  0  0  0  0  0  0
   -1.4019   -1.1896    8.9797 C   0  0  0  0  0  0  0  0  0  0  0  0
   -2.0471   -2.1477    8.2689 N   0  0  0  0  0  0  0  0  0  0  0  0
   -3.3551   -2.2161    8.6896 N   0  0  0  0  0  0  0  0  0  0  0  0
   -3.8694   -1.0008    8.9419 C   0  0  0  0  0  0  0  0  0  0  0  0
   -2.7466   -0.3037    8.3637 N   0  0  0  0  0  0  0  0  0  0  0  0
   -3.5476   -0.7200    6.9210 C   0  0  0  0  0  0  0  0  0  0  0  0
   -4.9893   -0.0799    6.5932 C   0  0  0  0  0  0  0  0  0  0  0  0
   -5.6871    0.3267    7.7672 N   0  0  0  0  0  0  0  0  0  0  0  0
   -5.3840   -0.7178    8.7333 C   0  0  0  0  0  0  0  0  0  0  0  0
    7.0142   -1.2260   15.4629 H   0  0  0  0  0  0  0  0  0  0  0  0
    6.5722   -1.1088   11.2044 H   0  0  0  0  0  0  0  0  0  0  0  0
    3.1157   -3.4765   12.5648 H   0  0  0  0  0  0  0  0  0  0  0  0
    3.8085   -2.0761   11.5392 H   0  0  0  0  0  0  0  0  0  0  0  0
    2.5357   -3.2457    9.7002 H   0  0  0  0  0  0  0  0  0  0  0  0
    1.1531   -0.6103    9.8287 H   0  0  0  0  0  0  0  0  0  0  0  0
    0.8570   -2.1486    9.0835 H   0  0  0  0  0  0  0  0  0  0  0  0
   -2.8664   -0.6619    6.1174 H   0  0  0  0  0  0  0  0  0  0  0  0
   -3.8234   -1.7791    6.9267 H   0  0  0  0  0  0  0  0  0  0  0  0
   -5.6331   -0.8406    6.1289 H   0  0  0  0  0  0  0  0  0  0  0  0
   -4.9659    0.7185    5.8431 H   0  0  0  0  0  0  0  0  0  0  0  0
   -5.3769    1.2301    8.0713 H   0  0  0  0  0  0  0  0  0  0  0  0
   -5.9851   -0.5139    9.6006 H   0  0  0  0  0  0  0  0  0  0  0  0
   -5.8333   -1.6396    8.3409 H   0  0  0  0  0  0  0  0  0  0  0  0
  1  2  1  0
  2  3  2  0
  3  4  1  0
  4  5  1  0
  5  6  2  0
  6  7  1  0
  7  8  1  0
  8  9  1  0
  9 10  1  0
 10 11  2  0
 11 12  1  0
 12 13  2  0
 13 14  1  0
 14 15  1  0
 15 16  1  0
 16 17  1  0
 17 18  1  0
  6  2  1  0
 14 10  1  0
 18 13  1  0
  3 19  1  0
  5 20  1  0
  7 21  1  0
  7 22  1  0
  8 23  1  0
  9 24  1  0
  9 25  1  0
 15 26  1  0
 15 27  1  0
 16 28  1  0
 16 29  1  0
 17 30  1  0
 18 31  1  0
 18 32  1  0
M  END
>  <Energy>  (1199) 
1033.7999139545166

>  <compound_id>  (1199) 
72685

>  <target_id>  (1199) 
1

>  <reference_id>  (1199) 
66

>  <inspiration_ids>  (1199) 
[66, 65]

>  <energy_score>  (1199) 
984.4968410952034

>  <distance_score>  (1199) 
6.123297256234466

>  <path>  (1199) 
/opt/xchem-fragalysis-2/maxwin/BulkDock/SCRATCH/511017/C72685-P66/C72685-P66.minimised.mol

>  <scratch_subdir>  (1199) 
/opt/xchem-fragalysis-2/maxwin/BulkDock/SCRATCH/511017/C72685-P66

>  <fragmenstein_runtime>  (1199) 
4.968705892562866

>  <fragmenstein_outcome>  (1199) 
too moved

>  <fragmenstein_mode>  (1199) 
expansion

>  <fragmenstein_error>  (1199) 


$$$$
C72685-P65
     RDKit          3D

 32 34  0  0  0  0  0  0  0  0999 V2000
    7.2747   -1.1132   11.5997 Cl  0  0  0  0  0  0  0  0  0  0  0  0
    6.1095   -2.0854   12.3103 C   0  0  0  0  0  0  0  0  0  0  0  0
    6.5669   -2.0409   13.6274 C   0  0  0  0  0  0  0  0  0  0  0  0
    5.5095   -2.7388   14.6401 S   0  0  0  0  0  0  0  0  0  0  0  0
    4.0108   -3.3436   12.9777 C   0  0  0  0  0  0  0  0  0  0  0  0
    4.6106   -3.0808   11.7255 C   0  0  0  0  0  0  0  0  0  0  0  0
    3.6792   -3.5355   10.0471 C   0  0  0  0  0  0  0  0  0  0  0  0
    2.7255   -3.2576    8.4009 N   0  0  0  0  0  0  0  0  0  0  0  0
    1.4460   -1.9842    7.6694 C   0  0  0  0  0  0  0  0  0  0  0  0
   -0.1250   -1.7568    6.3481 C   0  0  0  0  0  0  0  0  0  0  0  0
   -0.3391   -1.1359    4.9522 N   0  0  0  0  0  0  0  0  0  0  0  0
   -1.7350   -1.3443    4.4506 N   0  0  0  0  0  0  0  0  0  0  0  0
   -2.5632   -1.3897    5.4726 C   0  0  0  0  0  0  0  0  0  0  0  0
   -1.8310   -1.5807    6.6506 N   0  0  0  0  0  0  0  0  0  0  0  0
   -2.6505   -1.6885    7.8524 C   0  0  0  0  0  0  0  0  0  0  0  0
   -3.8171   -0.6762    7.8584 C   0  0  0  0  0  0  0  0  0  0  0  0
   -4.4519   -0.3688    6.5726 N   0  0  0  0  0  0  0  0  0  0  0  0
   -4.0458   -1.2711    5.4990 C   0  0  0  0  0  0  0  0  0  0  0  0
    7.5045   -1.6530   14.0101 H   0  0  0  0  0  0  0  0  0  0  0  0
    3.1525   -3.8713   13.3823 H   0  0  0  0  0  0  0  0  0  0  0  0
    4.4057   -4.2715    9.7326 H   0  0  0  0  0  0  0  0  0  0  0  0
    3.5085   -2.4977   10.1618 H   0  0  0  0  0  0  0  0  0  0  0  0
    3.1752   -3.7140    7.6146 H   0  0  0  0  0  0  0  0  0  0  0  0
    2.1834   -1.3332    7.2058 H   0  0  0  0  0  0  0  0  0  0  0  0
    1.1752   -1.5011    8.6269 H   0  0  0  0  0  0  0  0  0  0  0  0
   -3.0574   -2.7046    7.8467 H   0  0  0  0  0  0  0  0  0  0  0  0
   -2.0612   -1.5334    8.7356 H   0  0  0  0  0  0  0  0  0  0  0  0
   -3.4550    0.2754    8.2597 H   0  0  0  0  0  0  0  0  0  0  0  0
   -4.5777   -1.0394    8.5554 H   0  0  0  0  0  0  0  0  0  0  0  0
   -5.4668   -0.3568    6.6674 H   0  0  0  0  0  0  0  0  0  0  0  0
   -4.4980   -2.2604    5.6355 H   0  0  0  0  0  0  0  0  0  0  0  0
   -4.4015   -0.8747    4.5426 H   0  0  0  0  0  0  0  0  0  0  0  0
  1  2  1  0
  2  3  2  0
  3  4  1  0
  4  5  1  0
  5  6  2  0
  6  7  1  0
  7  8  1  0
  8  9  1  0
  9 10  1  0
 10 11  2  0
 11 12  1  0
 12 13  2  0
 13 14  1  0
 14 15  1  0
 15 16  1  0
 16 17  1  0
 17 18  1  0
  6  2  1  0
 14 10  1  0
 18 13  1  0
  3 19  1  0
  5 20  1  0
  7 21  1  0
  7 22  1  0
  8 23  1  0
  9 24  1  0
  9 25  1  0
 15 26  1  0
 15 27  1  0
 16 28  1  0
 16 29  1  0
 17 30  1  0
 18 31  1  0
 18 32  1  0
M  END
>  <Energy>  (1200) 
643.95132218318315

>  <compound_id>  (1200) 
72685

>  <target_id>  (1200) 
1

>  <reference_id>  (1200) 
65

>  <inspiration_ids>  (1200) 
[66, 65]

>  <energy_score>  (1200) 
594.6482493238714

>  <distance_score>  (1200) 
7.19189040529685

>  <path>  (1200) 
/opt/xchem-fragalysis-2/maxwin/BulkDock/SCRATCH/511017/C72685-P65/C72685-P65.minimised.mol

>  <scratch_subdir>  (1200) 
/opt/xchem-fragalysis-2/maxwin/BulkDock/SCRATCH/511017/C72685-P65

>  <fragmenstein_runtime>  (1200) 
6.256549835205078

>  <fragmenstein_outcome>  (1200) 
too moved

>  <fragmenstein_mode>  (1200) 
expansion

>  <fragmenstein_error>  (1200) 


$$$$
C72686-P66
     RDKit          3D

 32 34  0  0  0  0  0  0  0  0999 V2000
    7.7703   -1.7794   14.9265 Br  0  0  0  0  0  0  0  0  0  0  0  0
    6.1390   -2.4625   14.1931 C   0  0  0  0  0  0  0  0  0  0  0  0
    4.8935   -3.0264   14.6096 C   0  0  0  0  0  0  0  0  0  0  0  0
    3.4430   -3.5356   13.4120 C   0  0  0  0  0  0  0  0  0  0  0  0
    1.7872   -4.5640   13.7192 C   0  0  0  0  0  0  0  0  0  0  0  0
   -0.1405   -5.0181   13.6353 N   0  0  0  0  0  0  0  0  0  0  0  0
   -1.4725   -5.7944   12.4406 C   0  0  0  0  0  0  0  0  0  0  0  0
   -2.5248   -5.9379   10.7312 C   0  0  0  0  0  0  0  0  0  0  0  0
   -3.7447   -6.3566   10.9376 N   0  0  0  0  0  0  0  0  0  0  0  0
   -4.3629   -6.0462    9.7837 N   0  0  0  0  0  0  0  0  0  0  0  0
   -3.9215   -5.2348    8.7468 C   0  0  0  0  0  0  0  0  0  0  0  0
   -3.1497   -4.6486    9.5227 N   0  0  0  0  0  0  0  0  0  0  0  0
   -2.9313   -3.0817    8.5699 C   0  0  0  0  0  0  0  0  0  0  0  0
   -3.9762   -2.0083    8.1052 C   0  0  0  0  0  0  0  0  0  0  0  0
   -4.9228   -2.6878    7.2918 N   0  0  0  0  0  0  0  0  0  0  0  0
   -4.6407   -4.1437    7.3103 C   0  0  0  0  0  0  0  0  0  0  0  0
    4.3224   -3.2614   12.2512 C   0  0  0  0  0  0  0  0  0  0  0  0
    6.2086   -2.0362   12.5759 S   0  0  0  0  0  0  0  0  0  0  0  0
    4.6995   -3.3970   15.6143 H   0  0  0  0  0  0  0  0  0  0  0  0
    2.1767   -5.1859   14.5345 H   0  0  0  0  0  0  0  0  0  0  0  0
    1.4608   -3.6900   14.2709 H   0  0  0  0  0  0  0  0  0  0  0  0
   -0.6356   -4.1831   13.9668 H   0  0  0  0  0  0  0  0  0  0  0  0
   -1.1963   -6.8552   12.5590 H   0  0  0  0  0  0  0  0  0  0  0  0
   -2.3289   -5.6141   13.1091 H   0  0  0  0  0  0  0  0  0  0  0  0
   -2.6302   -3.5194    7.6314 H   0  0  0  0  0  0  0  0  0  0  0  0
   -2.2345   -2.3698    8.9097 H   0  0  0  0  0  0  0  0  0  0  0  0
   -4.4412   -1.4403    8.9161 H   0  0  0  0  0  0  0  0  0  0  0  0
   -3.4615   -1.2545    7.4990 H   0  0  0  0  0  0  0  0  0  0  0  0
   -5.8771   -2.5038    7.6034 H   0  0  0  0  0  0  0  0  0  0  0  0
   -3.8916   -4.3495    6.5688 H   0  0  0  0  0  0  0  0  0  0  0  0
   -5.6268   -4.4582    6.9057 H   0  0  0  0  0  0  0  0  0  0  0  0
    4.0329   -3.4782   11.2450 H   0  0  0  0  0  0  0  0  0  0  0  0
  1  2  1  0
  2  3  2  0
  3  4  1  0
  4  5  1  0
  5  6  1  0
  6  7  1  0
  7  8  1  0
  8  9  2  0
  9 10  1  0
 10 11  2  0
 11 12  1  0
 12 13  1  0
 13 14  1  0
 14 15  1  0
 15 16  1  0
  4 17  2  0
 17 18  1  0
 18  2  1  0
 12  8  1  0
 16 11  1  0
  3 19  1  0
  5 20  1  0
  5 21  1  0
  6 22  1  0
  7 23  1  0
  7 24  1  0
 13 25  1  0
 13 26  1  0
 14 27  1  0
 14 28  1  0
 15 29  1  0
 16 30  1  0
 16 31  1  0
 17 32  1  0
M  END
>  <Energy>  (1201) 
897.51620921961046

>  <compound_id>  (1201) 
72686

>  <target_id>  (1201) 
1

>  <reference_id>  (1201) 
66

>  <inspiration_ids>  (1201) 
[66, 65]

>  <energy_score>  (1201) 
846.495971172022

>  <distance_score>  (1201) 
7.541718216429

>  <path>  (1201) 
/opt/xchem-fragalysis-2/maxwin/BulkDock/SCRATCH/511017/C72686-P66/C72686-P66.minimised.mol

>  <scratch_subdir>  (1201) 
/opt/xchem-fragalysis-2/maxwin/BulkDock/SCRATCH/511017/C72686-P66

>  <fragmenstein_runtime>  (1201) 
6.226875305175781

>  <fragmenstein_outcome>  (1201) 
too moved

>  <fragmenstein_mode>  (1201) 
expansion

>  <fragmenstein_error>  (1201) 


$$$$
C72686-P65
     RDKit          3D

 32 34  0  0  0  0  0  0  0  0999 V2000
    6.5363   -2.3594   14.3979 Br  0  0  0  0  0  0  0  0  0  0  0  0
    5.5998   -2.7261   12.2957 C   0  0  0  0  0  0  0  0  0  0  0  0
    4.3201   -3.1512   11.8652 C   0  0  0  0  0  0  0  0  0  0  0  0
    3.5749   -1.9603   11.1376 C   0  0  0  0  0  0  0  0  0  0  0  0
    1.7120   -1.4305   10.9029 C   0  0  0  0  0  0  0  0  0  0  0  0
    0.3451   -1.2839    9.5158 N   0  0  0  0  0  0  0  0  0  0  0  0
   -1.5890   -1.3814    8.8971 C   0  0  0  0  0  0  0  0  0  0  0  0
   -2.7872   -0.4315    8.1489 C   0  0  0  0  0  0  0  0  0  0  0  0
   -2.9838    0.8762    8.1235 N   0  0  0  0  0  0  0  0  0  0  0  0
   -4.1195    1.2052    7.4378 N   0  0  0  0  0  0  0  0  0  0  0  0
   -4.6553    0.0828    7.0543 C   0  0  0  0  0  0  0  0  0  0  0  0
   -3.8606   -0.9608    7.4569 N   0  0  0  0  0  0  0  0  0  0  0  0
   -4.2022   -2.2735    6.9652 C   0  0  0  0  0  0  0  0  0  0  0  0
   -4.5775   -2.1498    5.4769 C   0  0  0  0  0  0  0  0  0  0  0  0
   -5.5851   -1.1175    5.1408 N   0  0  0  0  0  0  0  0  0  0  0  0
   -5.8655   -0.1766    6.2437 C   0  0  0  0  0  0  0  0  0  0  0  0
    4.6116   -0.4696   11.2675 C   0  0  0  0  0  0  0  0  0  0  0  0
    6.6188   -1.2575   12.0665 S   0  0  0  0  0  0  0  0  0  0  0  0
    3.7872   -4.0156   12.2385 H   0  0  0  0  0  0  0  0  0  0  0  0
    1.1579   -1.2509   11.8332 H   0  0  0  0  0  0  0  0  0  0  0  0
    2.1434   -0.4100   11.0256 H   0  0  0  0  0  0  0  0  0  0  0  0
   -0.1982   -1.0238   10.3860 H   0  0  0  0  0  0  0  0  0  0  0  0
   -2.2792   -1.9889    9.4215 H   0  0  0  0  0  0  0  0  0  0  0  0
   -1.6456   -2.0034    8.0054 H   0  0  0  0  0  0  0  0  0  0  0  0
   -3.3864   -2.9716    7.1400 H   0  0  0  0  0  0  0  0  0  0  0  0
   -5.0809   -2.6104    7.5185 H   0  0  0  0  0  0  0  0  0  0  0  0
   -3.6705   -1.9083    4.9093 H   0  0  0  0  0  0  0  0  0  0  0  0
   -4.9366   -3.1149    5.1058 H   0  0  0  0  0  0  0  0  0  0  0  0
   -5.2347   -0.5701    4.3526 H   0  0  0  0  0  0  0  0  0  0  0  0
   -6.6515   -0.5984    6.8810 H   0  0  0  0  0  0  0  0  0  0  0  0
   -6.2592    0.7572    5.8287 H   0  0  0  0  0  0  0  0  0  0  0  0
    5.2985   -0.2431   12.1015 H   0  0  0  0  0  0  0  0  0  0  0  0
  1  2  1  0
  2  3  2  0
  3  4  1  0
  4  5  1  0
  5  6  1  0
  6  7  1  0
  7  8  1  0
  8  9  2  0
  9 10  1  0
 10 11  2  0
 11 12  1  0
 12 13  1  0
 13 14  1  0
 14 15  1  0
 15 16  1  0
  4 17  2  0
 17 18  1  0
 18  2  1  0
 12  8  1  0
 16 11  1  0
  3 19  1  0
  5 20  1  0
  5 21  1  0
  6 22  1  0
  7 23  1  0
  7 24  1  0
 13 25  1  0
 13 26  1  0
 14 27  1  0
 14 28  1  0
 15 29  1  0
 16 30  1  0
 16 31  1  0
 17 32  1  0
M  END
>  <Energy>  (1202) 
664.60553472259505

>  <compound_id>  (1202) 
72686

>  <target_id>  (1202) 
1

>  <reference_id>  (1202) 
65

>  <inspiration_ids>  (1202) 
[66, 65]

>  <energy_score>  (1202) 
613.5852966750128

>  <distance_score>  (1202) 
6.827222368411077

>  <path>  (1202) 
/opt/xchem-fragalysis-2/maxwin/BulkDock/SCRATCH/511017/C72686-P65/C72686-P65.minimised.mol

>  <scratch_subdir>  (1202) 
/opt/xchem-fragalysis-2/maxwin/BulkDock/SCRATCH/511017/C72686-P65

>  <fragmenstein_runtime>  (1202) 
5.5333638191223145

>  <fragmenstein_outcome>  (1202) 
too moved

>  <fragmenstein_mode>  (1202) 
expansion

>  <fragmenstein_error>  (1202) 


$$$$
C72687-P66
     RDKit          3D

 37 39  0  0  0  0  0  0  0  0999 V2000
    7.8048    6.7795   13.0446 C   0  0  0  0  0  0  0  0  0  0  0  0
    7.5966    5.2981   12.7764 C   0  0  0  0  0  0  0  0  0  0  0  0
    6.9655    5.0768   11.3260 C   0  0  0  0  0  0  0  0  0  0  0  0
    7.7081    5.2505   10.3976 O   0  0  0  0  0  0  0  0  0  0  0  0
    5.5875    4.6020   11.3631 N   0  0  0  0  0  0  0  0  0  0  0  0
    4.7150    4.0983   10.2946 C   0  0  0  0  0  0  0  0  0  0  0  0
    3.2413    4.3804   10.3890 C   0  0  0  0  0  0  0  0  0  0  0  0
    2.5189    4.7205   11.4431 N   0  0  0  0  0  0  0  0  0  0  0  0
    1.2172    4.9705   11.0338 N   0  0  0  0  0  0  0  0  0  0  0  0
    1.1598    4.7633    9.7384 C   0  0  0  0  0  0  0  0  0  0  0  0
    2.3782    4.2897    9.3183 N   0  0  0  0  0  0  0  0  0  0  0  0
    2.6128    3.8149    7.9664 C   0  0  0  0  0  0  0  0  0  0  0  0
    1.4995    4.2776    7.0099 C   0  0  0  0  0  0  0  0  0  0  0  0
    0.1741    4.0943    7.6294 N   0  0  0  0  0  0  0  0  0  0  0  0
    0.0580    5.0216    8.7696 C   0  0  0  0  0  0  0  0  0  0  0  0
    8.9825    4.6059   12.9422 C   0  0  0  0  0  0  0  0  0  0  0  0
   10.0194    4.4580   12.0273 C   0  0  0  0  0  0  0  0  0  0  0  0
   11.1229    3.7101   12.5323 C   0  0  0  0  0  0  0  0  0  0  0  0
   10.9474    3.4059   13.8535 C   0  0  0  0  0  0  0  0  0  0  0  0
   12.2611    2.4690   14.8654 Br  0  0  0  0  0  0  0  0  0  0  0  0
    9.4960    4.0028   14.4903 S   0  0  0  0  0  0  0  0  0  0  0  0
    8.5093    7.2260   12.3331 H   0  0  0  0  0  0  0  0  0  0  0  0
    6.8582    7.3219   12.9437 H   0  0  0  0  0  0  0  0  0  0  0  0
    8.1884    6.9598   14.0548 H   0  0  0  0  0  0  0  0  0  0  0  0
    6.9077    4.9130   13.5328 H   0  0  0  0  0  0  0  0  0  0  0  0
    5.2420    4.6581   12.3170 H   0  0  0  0  0  0  0  0  0  0  0  0
    4.8522    3.0156   10.2599 H   0  0  0  0  0  0  0  0  0  0  0  0
    5.1172    4.5018    9.3593 H   0  0  0  0  0  0  0  0  0  0  0  0
    3.5818    4.1931    7.6288 H   0  0  0  0  0  0  0  0  0  0  0  0
    2.6518    2.7214    8.0244 H   0  0  0  0  0  0  0  0  0  0  0  0
    1.6443    5.3333    6.7449 H   0  0  0  0  0  0  0  0  0  0  0  0
    1.5656    3.7213    6.0708 H   0  0  0  0  0  0  0  0  0  0  0  0
   -0.5606    4.3053    6.9436 H   0  0  0  0  0  0  0  0  0  0  0  0
    0.1320    6.0575    8.4144 H   0  0  0  0  0  0  0  0  0  0  0  0
   -0.9227    4.9424    9.2340 H   0  0  0  0  0  0  0  0  0  0  0  0
    9.9778    4.8396   11.0117 H   0  0  0  0  0  0  0  0  0  0  0  0
   12.0065    3.4583   11.9574 H   0  0  0  0  0  0  0  0  0  0  0  0
  1  2  1  0
  2  3  1  0
  3  4  2  0
  3  5  1  0
  5  6  1  0
  6  7  1  0
  7  8  2  0
  8  9  1  0
  9 10  2  0
 10 11  1  0
 11 12  1  0
 12 13  1  0
 13 14  1  0
 14 15  1  0
  2 16  1  0
 16 17  2  0
 17 18  1  0
 18 19  2  0
 19 20  1  0
 19 21  1  0
 11  7  1  0
 21 16  1  0
 15 10  1  0
  1 22  1  0
  1 23  1  0
  1 24  1  0
  2 25  1  0
  5 26  1  0
  6 27  1  0
  6 28  1  0
 12 29  1  0
 12 30  1  0
 13 31  1  0
 13 32  1  0
 14 33  1  0
 15 34  1  0
 15 35  1  0
 17 36  1  0
 18 37  1  0
M  END
>  <Energy>  (1203) 
35.806427956985438

>  <compound_id>  (1203) 
72687

>  <target_id>  (1203) 
1

>  <reference_id>  (1203) 
66

>  <inspiration_ids>  (1203) 
[66, 65]

>  <energy_score>  (1203) 
-35.7384232653211

>  <distance_score>  (1203) 
9.657647431012

>  <path>  (1203) 
/opt/xchem-fragalysis-2/maxwin/BulkDock/SCRATCH/511017/C72687-P66/C72687-P66.minimised.mol

>  <scratch_subdir>  (1203) 
/opt/xchem-fragalysis-2/maxwin/BulkDock/SCRATCH/511017/C72687-P66

>  <fragmenstein_runtime>  (1203) 
9.94694471359253

>  <fragmenstein_outcome>  (1203) 
too moved

>  <fragmenstein_mode>  (1203) 
expansion

>  <fragmenstein_error>  (1203) 


$$$$
C72687-P65
     RDKit          3D

 37 39  0  0  0  0  0  0  0  0999 V2000
    7.5762   -1.8452   13.6511 C   0  0  0  0  0  0  0  0  0  0  0  0
    7.4569   -0.5519   12.2656 C   0  0  0  0  0  0  0  0  0  0  0  0
    5.7742   -0.5985   12.6042 C   0  0  0  0  0  0  0  0  0  0  0  0
    5.6373   -0.8962   13.7992 O   0  0  0  0  0  0  0  0  0  0  0  0
    4.3701   -0.3769   11.2004 N   0  0  0  0  0  0  0  0  0  0  0  0
    2.2075   -0.7205   11.1760 C   0  0  0  0  0  0  0  0  0  0  0  0
    0.4074   -1.2647    9.9414 C   0  0  0  0  0  0  0  0  0  0  0  0
   -0.9599   -0.8450   10.8723 N   0  0  0  0  0  0  0  0  0  0  0  0
   -2.6853   -0.2378    9.9995 N   0  0  0  0  0  0  0  0  0  0  0  0
   -2.7981   -1.0863    9.1010 C   0  0  0  0  0  0  0  0  0  0  0  0
   -1.3224   -1.3682    8.9409 N   0  0  0  0  0  0  0  0  0  0  0  0
   -1.9746   -1.7289    7.3097 C   0  0  0  0  0  0  0  0  0  0  0  0
   -2.9536   -0.6163    6.6726 C   0  0  0  0  0  0  0  0  0  0  0  0
   -4.2526   -0.4560    7.2707 N   0  0  0  0  0  0  0  0  0  0  0  0
   -4.1227   -1.3266    8.4035 C   0  0  0  0  0  0  0  0  0  0  0  0
    8.8235    0.2482   13.3078 C   0  0  0  0  0  0  0  0  0  0  0  0
    9.1000    0.2466   14.7195 C   0  0  0  0  0  0  0  0  0  0  0  0
   10.3285    0.8400   15.1487 C   0  0  0  0  0  0  0  0  0  0  0  0
   11.0445    1.3070   14.0969 C   0  0  0  0  0  0  0  0  0  0  0  0
   12.7491    2.1517   14.2615 Br  0  0  0  0  0  0  0  0  0  0  0  0
   10.2616    1.1339   12.6331 S   0  0  0  0  0  0  0  0  0  0  0  0
    8.4701   -2.4159   13.8226 H   0  0  0  0  0  0  0  0  0  0  0  0
    7.4844   -1.4346   14.6558 H   0  0  0  0  0  0  0  0  0  0  0  0
    6.7193   -2.5060   13.7272 H   0  0  0  0  0  0  0  0  0  0  0  0
    7.6945   -1.1261   11.3911 H   0  0  0  0  0  0  0  0  0  0  0  0
    4.7923   -0.0439   10.3490 H   0  0  0  0  0  0  0  0  0  0  0  0
    1.7405   -0.6594   12.1783 H   0  0  0  0  0  0  0  0  0  0  0  0
    2.2837    0.3779   11.0014 H   0  0  0  0  0  0  0  0  0  0  0  0
   -2.4646   -2.6968    7.4723 H   0  0  0  0  0  0  0  0  0  0  0  0
   -1.2009   -1.7689    6.5699 H   0  0  0  0  0  0  0  0  0  0  0  0
   -3.1221   -0.8746    5.6223 H   0  0  0  0  0  0  0  0  0  0  0  0
   -2.5147    0.3675    6.7741 H   0  0  0  0  0  0  0  0  0  0  0  0
   -4.3678    0.4923    7.6359 H   0  0  0  0  0  0  0  0  0  0  0  0
   -4.2570   -2.3287    7.9976 H   0  0  0  0  0  0  0  0  0  0  0  0
   -4.9572   -1.1416    9.0669 H   0  0  0  0  0  0  0  0  0  0  0  0
    8.4485   -0.1432   15.4869 H   0  0  0  0  0  0  0  0  0  0  0  0
   10.6394    0.9158   16.1793 H   0  0  0  0  0  0  0  0  0  0  0  0
  1  2  1  0
  2  3  1  0
  3  4  2  0
  3  5  1  0
  5  6  1  0
  6  7  1  0
  7  8  2  0
  8  9  1  0
  9 10  2  0
 10 11  1  0
 11 12  1  0
 12 13  1  0
 13 14  1  0
 14 15  1  0
  2 16  1  0
 16 17  2  0
 17 18  1  0
 18 19  2  0
 19 20  1  0
 19 21  1  0
 11  7  1  0
 21 16  1  0
 15 10  1  0
  1 22  1  0
  1 23  1  0
  1 24  1  0
  2 25  1  0
  5 26  1  0
  6 27  1  0
  6 28  1  0
 12 29  1  0
 12 30  1  0
 13 31  1  0
 13 32  1  0
 14 33  1  0
 15 34  1  0
 15 35  1  0
 17 36  1  0
 18 37  1  0
M  END
>  <Energy>  (1204) 
1262.1656641175264

>  <compound_id>  (1204) 
72687

>  <target_id>  (1204) 
1

>  <reference_id>  (1204) 
65

>  <inspiration_ids>  (1204) 
[66, 65]

>  <energy_score>  (1204) 
1190.6208128952292

>  <distance_score>  (1204) 
6.180322376475692

>  <path>  (1204) 
/opt/xchem-fragalysis-2/maxwin/BulkDock/SCRATCH/511017/C72687-P65/C72687-P65.minimised.mol

>  <scratch_subdir>  (1204) 
/opt/xchem-fragalysis-2/maxwin/BulkDock/SCRATCH/511017/C72687-P65

>  <fragmenstein_runtime>  (1204) 
8.780615329742432

>  <fragmenstein_outcome>  (1204) 
too moved

>  <fragmenstein_mode>  (1204) 
expansion

>  <fragmenstein_error>  (1204) 


$$$$
C72697-P66
     RDKit          3D

 41 44  0  0  0  0  0  0  0  0999 V2000
    5.3417   -3.0061   14.6272 O   0  0  0  0  0  0  0  0  0  0  0  0
    5.7843   -2.8338   13.4760 C   0  0  0  0  0  0  0  0  0  0  0  0
    6.8301   -1.9193   13.5078 C   0  0  0  0  0  0  0  0  0  0  0  0
    7.7113   -2.0219   14.5749 C   0  0  0  0  0  0  0  0  0  0  0  0
    8.7701   -1.1442   14.5992 C   0  0  0  0  0  0  0  0  0  0  0  0
    8.5935   -0.1520   13.6621 C   0  0  0  0  0  0  0  0  0  0  0  0
    7.2552   -0.8318   12.4363 S   0  0  0  0  0  0  0  0  0  0  0  0
    5.1290   -3.8367   12.2454 N   0  0  0  0  0  0  0  0  0  0  0  0
    3.8989   -3.0872   11.6268 C   0  0  0  0  0  0  0  0  0  0  0  0
    2.9231   -3.2973    9.8615 C   0  0  0  0  0  0  0  0  0  0  0  0
    1.5759   -2.0824   10.1292 C   0  0  0  0  0  0  0  0  0  0  0  0
   -0.2271   -1.1887    9.7982 C   0  0  0  0  0  0  0  0  0  0  0  0
   -1.1590   -1.8875    8.4347 N   0  0  0  0  0  0  0  0  0  0  0  0
   -2.5553   -2.4483    8.6704 N   0  0  0  0  0  0  0  0  0  0  0  0
   -3.0917   -1.3188    8.9603 C   0  0  0  0  0  0  0  0  0  0  0  0
   -1.8388   -0.6206    8.8556 N   0  0  0  0  0  0  0  0  0  0  0  0
   -2.5780   -0.7481    7.2170 C   0  0  0  0  0  0  0  0  0  0  0  0
   -4.2788   -0.4331    6.9773 C   0  0  0  0  0  0  0  0  0  0  0  0
   -4.7451    0.2319    8.1648 N   0  0  0  0  0  0  0  0  0  0  0  0
   -4.4709   -0.8310    9.0887 C   0  0  0  0  0  0  0  0  0  0  0  0
    2.3164   -3.8069   11.1141 C   0  0  0  0  0  0  0  0  0  0  0  0
    4.0738   -3.7849   11.3826 C   0  0  0  0  0  0  0  0  0  0  0  0
    7.6950   -2.8655   15.2182 H   0  0  0  0  0  0  0  0  0  0  0  0
    9.7170   -1.3676   15.0769 H   0  0  0  0  0  0  0  0  0  0  0  0
    9.2974    0.5887   13.3097 H   0  0  0  0  0  0  0  0  0  0  0  0
    3.2195   -3.1190   12.7359 H   0  0  0  0  0  0  0  0  0  0  0  0
    4.0038   -1.9568   11.5820 H   0  0  0  0  0  0  0  0  0  0  0  0
    2.4552   -4.1159    9.2186 H   0  0  0  0  0  0  0  0  0  0  0  0
    3.6613   -3.3748    9.0467 H   0  0  0  0  0  0  0  0  0  0  0  0
    1.3128   -2.3048    9.0542 H   0  0  0  0  0  0  0  0  0  0  0  0
   -1.8552   -1.4191    6.7533 H   0  0  0  0  0  0  0  0  0  0  0  0
   -3.0752   -1.7199    7.1231 H   0  0  0  0  0  0  0  0  0  0  0  0
   -4.5397    0.1449    6.0803 H   0  0  0  0  0  0  0  0  0  0  0  0
   -4.8665   -1.3649    6.8519 H   0  0  0  0  0  0  0  0  0  0  0  0
   -4.0485    0.9375    8.3889 H   0  0  0  0  0  0  0  0  0  0  0  0
   -4.5514   -0.5368   10.1046 H   0  0  0  0  0  0  0  0  0  0  0  0
   -5.2199   -1.5840    8.8706 H   0  0  0  0  0  0  0  0  0  0  0  0
    2.4727   -4.8210   10.6863 H   0  0  0  0  0  0  0  0  0  0  0  0
    2.0227   -4.1788   12.1521 H   0  0  0  0  0  0  0  0  0  0  0  0
    3.8213   -4.8817   11.9500 H   0  0  0  0  0  0  0  0  0  0  0  0
    4.3853   -4.6322   10.6219 H   0  0  0  0  0  0  0  0  0  0  0  0
  1  2  2  0
  2  3  1  0
  3  4  2  0
  4  5  1  0
  5  6  2  0
  6  7  1  0
  2  8  1  0
  8  9  1  0
  9 10  1  0
 10 11  1  0
 11 12  1  0
 12 13  2  0
 13 14  1  0
 14 15  2  0
 15 16  1  0
 16 17  1  0
 17 18  1  0
 18 19  1  0
 19 20  1  0
 11 21  1  0
 21 22  1  0
  7  3  1  0
 22  8  1  0
 16 12  1  0
 20 15  1  0
  4 23  1  0
  5 24  1  0
  6 25  1  0
  9 26  1  0
  9 27  1  0
 10 28  1  0
 10 29  1  0
 11 30  1  0
 17 31  1  0
 17 32  1  0
 18 33  1  0
 18 34  1  0
 19 35  1  0
 20 36  1  0
 20 37  1  0
 21 38  1  0
 21 39  1  0
 22 40  1  0
 22 41  1  0
M  END
>  <Energy>  (1205) 
1867.2644561041013

>  <compound_id>  (1205) 
72697

>  <target_id>  (1205) 
1

>  <reference_id>  (1205) 
66

>  <inspiration_ids>  (1205) 
[66, 65]

>  <energy_score>  (1205) 
1804.7298984709519

>  <distance_score>  (1205) 
6.485380119946761

>  <path>  (1205) 
/opt/xchem-fragalysis-2/maxwin/BulkDock/SCRATCH/511017/C72697-P66/C72697-P66.minimised.mol

>  <scratch_subdir>  (1205) 
/opt/xchem-fragalysis-2/maxwin/BulkDock/SCRATCH/511017/C72697-P66

>  <fragmenstein_runtime>  (1205) 
11.82666277885437

>  <fragmenstein_outcome>  (1205) 
too moved

>  <fragmenstein_mode>  (1205) 
expansion

>  <fragmenstein_error>  (1205) 


$$$$
C72697-P65
     RDKit          3D

 41 44  0  0  0  0  0  0  0  0999 V2000
    6.1662   -0.9442   14.1272 O   0  0  0  0  0  0  0  0  0  0  0  0
    6.6400   -1.9722   13.8828 C   0  0  0  0  0  0  0  0  0  0  0  0
    8.1075   -1.8985   14.0545 C   0  0  0  0  0  0  0  0  0  0  0  0
    8.9850   -2.6621   14.8757 C   0  0  0  0  0  0  0  0  0  0  0  0
   10.3242   -2.1839   15.1403 C   0  0  0  0  0  0  0  0  0  0  0  0
   10.3796   -0.8314   15.0267 C   0  0  0  0  0  0  0  0  0  0  0  0
    8.8220   -0.2276   14.7316 S   0  0  0  0  0  0  0  0  0  0  0  0
    5.6240   -2.9272   13.6695 N   0  0  0  0  0  0  0  0  0  0  0  0
    4.6413   -3.5565   12.0025 C   0  0  0  0  0  0  0  0  0  0  0  0
    3.5008   -2.3991   10.8689 C   0  0  0  0  0  0  0  0  0  0  0  0
    1.7853   -1.7554   11.1266 C   0  0  0  0  0  0  0  0  0  0  0  0
    0.2199   -1.2855    9.7579 C   0  0  0  0  0  0  0  0  0  0  0  0
   -1.0176   -0.9776   10.7071 N   0  0  0  0  0  0  0  0  0  0  0  0
   -2.6852   -0.5180    9.7085 N   0  0  0  0  0  0  0  0  0  0  0  0
   -2.4093   -0.3832    8.4764 C   0  0  0  0  0  0  0  0  0  0  0  0
   -1.5045   -1.4927    8.8257 N   0  0  0  0  0  0  0  0  0  0  0  0
   -2.4948   -2.4428    8.0023 C   0  0  0  0  0  0  0  0  0  0  0  0
   -3.8962   -2.1251    7.2537 C   0  0  0  0  0  0  0  0  0  0  0  0
   -4.4883   -0.8321    7.4600 N   0  0  0  0  0  0  0  0  0  0  0  0
   -3.3682    0.0691    7.4588 C   0  0  0  0  0  0  0  0  0  0  0  0
    2.9374   -3.0718   12.3383 C   0  0  0  0  0  0  0  0  0  0  0  0
    5.1293   -3.0017   12.2739 C   0  0  0  0  0  0  0  0  0  0  0  0
    8.7728   -3.6504   15.2090 H   0  0  0  0  0  0  0  0  0  0  0  0
   11.1350   -2.7970   15.5158 H   0  0  0  0  0  0  0  0  0  0  0  0
   11.2115   -0.1723   15.2292 H   0  0  0  0  0  0  0  0  0  0  0  0
    4.1121   -4.6125   12.3454 H   0  0  0  0  0  0  0  0  0  0  0  0
    4.8925   -4.3698   11.1915 H   0  0  0  0  0  0  0  0  0  0  0  0
    3.9376   -1.5008   11.2305 H   0  0  0  0  0  0  0  0  0  0  0  0
    3.5323   -2.8498    9.8704 H   0  0  0  0  0  0  0  0  0  0  0  0
    1.8405   -0.7971   11.6679 H   0  0  0  0  0  0  0  0  0  0  0  0
   -1.9417   -2.4369    7.0984 H   0  0  0  0  0  0  0  0  0  0  0  0
   -2.8024   -3.2671    8.6106 H   0  0  0  0  0  0  0  0  0  0  0  0
   -3.7322   -2.2437    6.1723 H   0  0  0  0  0  0  0  0  0  0  0  0
   -4.6239   -2.9144    7.4596 H   0  0  0  0  0  0  0  0  0  0  0  0
   -5.1667   -0.5975    6.7423 H   0  0  0  0  0  0  0  0  0  0  0  0
   -3.7073    1.0829    7.6945 H   0  0  0  0  0  0  0  0  0  0  0  0
   -2.9318    0.0989    6.4690 H   0  0  0  0  0  0  0  0  0  0  0  0
    2.5503   -4.1661   12.4614 H   0  0  0  0  0  0  0  0  0  0  0  0
    2.5855   -3.0033   13.3987 H   0  0  0  0  0  0  0  0  0  0  0  0
    5.7532   -2.0502   12.1126 H   0  0  0  0  0  0  0  0  0  0  0  0
    4.2799   -3.0558   13.4861 H   0  0  0  0  0  0  0  0  0  0  0  0
  1  2  2  0
  2  3  1  0
  3  4  2  0
  4  5  1  0
  5  6  2  0
  6  7  1  0
  2  8  1  0
  8  9  1  0
  9 10  1  0
 10 11  1  0
 11 12  1  0
 12 13  2  0
 13 14  1  0
 14 15  2  0
 15 16  1  0
 16 17  1  0
 17 18  1  0
 18 19  1  0
 19 20  1  0
 11 21  1  0
 21 22  1  0
  7  3  1  0
 22  8  1  0
 16 12  1  0
 20 15  1  0
  4 23  1  0
  5 24  1  0
  6 25  1  0
  9 26  1  0
  9 27  1  0
 10 28  1  0
 10 29  1  0
 11 30  1  0
 17 31  1  0
 17 32  1  0
 18 33  1  0
 18 34  1  0
 19 35  1  0
 20 36  1  0
 20 37  1  0
 21 38  1  0
 21 39  1  0
 22 40  1  0
 22 41  1  0
M  END
>  <Energy>  (1206) 
1983.0043411094246

>  <compound_id>  (1206) 
72697

>  <target_id>  (1206) 
1

>  <reference_id>  (1206) 
65

>  <inspiration_ids>  (1206) 
[66, 65]

>  <energy_score>  (1206) 
1920.4697834762562

>  <distance_score>  (1206) 
6.101755393059238

>  <path>  (1206) 
/opt/xchem-fragalysis-2/maxwin/BulkDock/SCRATCH/511017/C72697-P65/C72697-P65.minimised.mol

>  <scratch_subdir>  (1206) 
/opt/xchem-fragalysis-2/maxwin/BulkDock/SCRATCH/511017/C72697-P65

>  <fragmenstein_runtime>  (1206) 
12.487100839614868

>  <fragmenstein_outcome>  (1206) 
too moved

>  <fragmenstein_mode>  (1206) 
expansion

>  <fragmenstein_error>  (1206) 


$$$$
C72700-P66
     RDKit          3D

 37 39  0  0  0  0  0  0  0  0999 V2000
    6.2305   -7.9773   13.5014 C   0  0  0  0  0  0  0  0  0  0  0  0
    7.8680   -7.1354   13.0977 S   0  0  0  0  0  0  0  0  0  0  0  0
    8.4276   -7.2505   14.5296 O   0  0  0  0  0  0  0  0  0  0  0  0
    8.1603   -7.5376   11.7383 O   0  0  0  0  0  0  0  0  0  0  0  0
    8.5999   -5.0577   14.3453 C   0  0  0  0  0  0  0  0  0  0  0  0
    8.3156   -3.1606   14.0886 C   0  0  0  0  0  0  0  0  0  0  0  0
    7.0202   -2.3005   13.1234 C   0  0  0  0  0  0  0  0  0  0  0  0
    5.6437   -1.6972   12.3032 C   0  0  0  0  0  0  0  0  0  0  0  0
    5.7666   -0.5692   12.1665 O   0  0  0  0  0  0  0  0  0  0  0  0
    3.8415   -2.3796   11.7375 N   0  0  0  0  0  0  0  0  0  0  0  0
    2.0868   -1.3722   11.1118 C   0  0  0  0  0  0  0  0  0  0  0  0
    0.4009   -1.3911    9.9421 C   0  0  0  0  0  0  0  0  0  0  0  0
    0.5219   -2.3414    8.7387 N   0  0  0  0  0  0  0  0  0  0  0  0
   -0.9873   -1.8809    7.5923 N   0  0  0  0  0  0  0  0  0  0  0  0
   -2.0590   -1.8959    8.2995 C   0  0  0  0  0  0  0  0  0  0  0  0
   -1.4182   -0.9858    9.2707 N   0  0  0  0  0  0  0  0  0  0  0  0
   -2.4170    0.1017    8.8456 C   0  0  0  0  0  0  0  0  0  0  0  0
   -3.9483   -0.1504    8.9229 C   0  0  0  0  0  0  0  0  0  0  0  0
   -4.5025   -1.3581    8.4247 N   0  0  0  0  0  0  0  0  0  0  0  0
   -3.4458   -1.9874    7.7243 C   0  0  0  0  0  0  0  0  0  0  0  0
    6.4299   -2.7201   14.2886 C   0  0  0  0  0  0  0  0  0  0  0  0
    7.9142   -2.9353   15.0758 S   0  0  0  0  0  0  0  0  0  0  0  0
    5.8983   -7.7517   14.5160 H   0  0  0  0  0  0  0  0  0  0  0  0
    6.3738   -9.0606   13.4530 H   0  0  0  0  0  0  0  0  0  0  0  0
    5.4699   -7.8038   12.7428 H   0  0  0  0  0  0  0  0  0  0  0  0
    9.5537   -2.7802   14.0554 H   0  0  0  0  0  0  0  0  0  0  0  0
    3.8408   -3.3917   11.8101 H   0  0  0  0  0  0  0  0  0  0  0  0
    2.1354   -2.2600   10.4248 H   0  0  0  0  0  0  0  0  0  0  0  0
    2.5379   -0.3604   11.2014 H   0  0  0  0  0  0  0  0  0  0  0  0
   -2.2027    0.0474    7.8007 H   0  0  0  0  0  0  0  0  0  0  0  0
   -2.2539    1.1557    8.8625 H   0  0  0  0  0  0  0  0  0  0  0  0
   -4.4751    0.6456    8.4067 H   0  0  0  0  0  0  0  0  0  0  0  0
   -4.2137   -0.2161    9.9498 H   0  0  0  0  0  0  0  0  0  0  0  0
   -5.3201   -1.2150    7.8366 H   0  0  0  0  0  0  0  0  0  0  0  0
   -3.4261   -1.3872    6.8197 H   0  0  0  0  0  0  0  0  0  0  0  0
   -3.7077   -3.0239    7.4966 H   0  0  0  0  0  0  0  0  0  0  0  0
    5.4377   -2.6966   14.6997 H   0  0  0  0  0  0  0  0  0  0  0  0
  1  2  1  0
  2  3  2  0
  2  4  2  0
  2  5  1  0
  5  6  2  0
  6  7  1  0
  7  8  1  0
  8  9  2  0
  8 10  1  0
 10 11  1  0
 11 12  1  0
 12 13  2  0
 13 14  1  0
 14 15  2  0
 15 16  1  0
 16 17  1  0
 17 18  1  0
 18 19  1  0
 19 20  1  0
  7 21  2  0
 21 22  1  0
 22  5  1  0
 16 12  1  0
 20 15  1  0
  1 23  1  0
  1 24  1  0
  1 25  1  0
  6 26  1  0
 10 27  1  0
 11 28  1  0
 11 29  1  0
 17 30  1  0
 17 31  1  0
 18 32  1  0
 18 33  1  0
 19 34  1  0
 20 35  1  0
 20 36  1  0
 21 37  1  0
M  END
>  <Energy>  (1207) 
1666.3251854680898

>  <compound_id>  (1207) 
72700

>  <target_id>  (1207) 
1

>  <reference_id>  (1207) 
66

>  <inspiration_ids>  (1207) 
[66, 65]

>  <energy_score>  (1207) 
1566.221039160992

>  <distance_score>  (1207) 
6.299310205979635

>  <path>  (1207) 
/opt/xchem-fragalysis-2/maxwin/BulkDock/SCRATCH/511017/C72700-P66/C72700-P66.minimised.mol

>  <scratch_subdir>  (1207) 
/opt/xchem-fragalysis-2/maxwin/BulkDock/SCRATCH/511017/C72700-P66

>  <fragmenstein_runtime>  (1207) 
11.378644943237305

>  <fragmenstein_outcome>  (1207) 
too moved

>  <fragmenstein_mode>  (1207) 
expansion

>  <fragmenstein_error>  (1207) 


$$$$
C72700-P65
     RDKit          3D

 37 39  0  0  0  0  0  0  0  0999 V2000
    9.2522   -0.0849   14.3074 C   0  0  0  0  0  0  0  0  0  0  0  0
    8.2329   -1.4273   14.8246 S   0  0  0  0  0  0  0  0  0  0  0  0
    7.5937   -0.8240   15.9830 O   0  0  0  0  0  0  0  0  0  0  0  0
    9.0226   -2.6195   15.0000 O   0  0  0  0  0  0  0  0  0  0  0  0
    6.7208   -1.9251   13.7344 C   0  0  0  0  0  0  0  0  0  0  0  0
    6.2043   -2.0603   12.4094 C   0  0  0  0  0  0  0  0  0  0  0  0
    4.7698   -3.2699   12.2002 C   0  0  0  0  0  0  0  0  0  0  0  0
    4.1471   -4.5507   11.5735 C   0  0  0  0  0  0  0  0  0  0  0  0
    4.4438   -4.6745   10.4382 O   0  0  0  0  0  0  0  0  0  0  0  0
    3.2672   -5.4919   12.5171 N   0  0  0  0  0  0  0  0  0  0  0  0
    2.6628   -6.8286   12.2630 C   0  0  0  0  0  0  0  0  0  0  0  0
    1.1998   -6.9354   11.8839 C   0  0  0  0  0  0  0  0  0  0  0  0
    0.7200   -7.2946   10.7036 N   0  0  0  0  0  0  0  0  0  0  0  0
   -0.6543   -7.3556   10.7441 N   0  0  0  0  0  0  0  0  0  0  0  0
   -1.0205   -7.0275   11.9558 C   0  0  0  0  0  0  0  0  0  0  0  0
    0.1066   -6.8419   12.7231 N   0  0  0  0  0  0  0  0  0  0  0  0
    0.0292   -6.4680   14.1146 C   0  0  0  0  0  0  0  0  0  0  0  0
   -1.3836   -5.9906   14.5377 C   0  0  0  0  0  0  0  0  0  0  0  0
   -2.3056   -5.6246   13.4494 N   0  0  0  0  0  0  0  0  0  0  0  0
   -2.3765   -6.7355   12.4789 C   0  0  0  0  0  0  0  0  0  0  0  0
    3.9705   -3.2089   13.3166 C   0  0  0  0  0  0  0  0  0  0  0  0
    5.6070   -2.6938   14.7466 S   0  0  0  0  0  0  0  0  0  0  0  0
   10.3037   -0.3828   14.3557 H   0  0  0  0  0  0  0  0  0  0  0  0
    8.9806    0.2734   13.3212 H   0  0  0  0  0  0  0  0  0  0  0  0
    9.1380    0.7364   15.0215 H   0  0  0  0  0  0  0  0  0  0  0  0
    6.9418   -1.8728   11.6357 H   0  0  0  0  0  0  0  0  0  0  0  0
    3.2777   -5.1404   13.4464 H   0  0  0  0  0  0  0  0  0  0  0  0
    2.6808   -7.2500   13.2817 H   0  0  0  0  0  0  0  0  0  0  0  0
    3.3238   -7.5475   11.7746 H   0  0  0  0  0  0  0  0  0  0  0  0
    0.3128   -7.3531   14.6954 H   0  0  0  0  0  0  0  0  0  0  0  0
    0.7773   -5.6934   14.3038 H   0  0  0  0  0  0  0  0  0  0  0  0
   -1.8552   -6.7830   15.1337 H   0  0  0  0  0  0  0  0  0  0  0  0
   -1.2828   -5.1389   15.2207 H   0  0  0  0  0  0  0  0  0  0  0  0
   -1.9338   -4.8003   12.9776 H   0  0  0  0  0  0  0  0  0  0  0  0
   -3.0516   -6.4634   11.6615 H   0  0  0  0  0  0  0  0  0  0  0  0
   -2.7990   -7.6273   12.9558 H   0  0  0  0  0  0  0  0  0  0  0  0
    3.0047   -3.5726   13.6576 H   0  0  0  0  0  0  0  0  0  0  0  0
  1  2  1  0
  2  3  2  0
  2  4  2  0
  2  5  1  0
  5  6  2  0
  6  7  1  0
  7  8  1  0
  8  9  2  0
  8 10  1  0
 10 11  1  0
 11 12  1  0
 12 13  2  0
 13 14  1  0
 14 15  2  0
 15 16  1  0
 16 17  1  0
 17 18  1  0
 18 19  1  0
 19 20  1  0
  7 21  2  0
 21 22  1  0
 22  5  1  0
 16 12  1  0
 20 15  1  0
  1 23  1  0
  1 24  1  0
  1 25  1  0
  6 26  1  0
 10 27  1  0
 11 28  1  0
 11 29  1  0
 17 30  1  0
 17 31  1  0
 18 32  1  0
 18 33  1  0
 19 34  1  0
 20 35  1  0
 20 36  1  0
 21 37  1  0
M  END
>  <Energy>  (1208) 
251.36559095996347

>  <compound_id>  (1208) 
72700

>  <target_id>  (1208) 
1

>  <reference_id>  (1208) 
65

>  <inspiration_ids>  (1208) 
[66, 65]

>  <energy_score>  (1208) 
151.26144465285472

>  <distance_score>  (1208) 
9.693589983549632

>  <path>  (1208) 
/opt/xchem-fragalysis-2/maxwin/BulkDock/SCRATCH/511017/C72700-P65/C72700-P65.minimised.mol

>  <scratch_subdir>  (1208) 
/opt/xchem-fragalysis-2/maxwin/BulkDock/SCRATCH/511017/C72700-P65

>  <fragmenstein_runtime>  (1208) 
8.135380029678345

>  <fragmenstein_outcome>  (1208) 
too moved

>  <fragmenstein_mode>  (1208) 
expansion

>  <fragmenstein_error>  (1208) 


$$$$
C72701-P66
     RDKit          3D

 34 36  0  0  0  0  0  0  0  0999 V2000
    3.1514    1.1944   11.1609 O   0  0  0  0  0  0  0  0  0  0  0  0
    3.2417   -0.0272   11.1724 C   0  0  0  0  0  0  0  0  0  0  0  0
    1.8592   -1.2586   10.7620 N   0  0  0  0  0  0  0  0  0  0  0  0
    0.1995   -1.0224   10.1632 C   0  0  0  0  0  0  0  0  0  0  0  0
   -1.5922   -0.9259    9.0351 C   0  0  0  0  0  0  0  0  0  0  0  0
   -2.0692    0.2646    8.5868 N   0  0  0  0  0  0  0  0  0  0  0  0
   -3.3440    0.5813    8.8454 N   0  0  0  0  0  0  0  0  0  0  0  0
   -4.0193   -0.5048    8.7908 C   0  0  0  0  0  0  0  0  0  0  0  0
   -3.0447   -1.5500    8.7210 N   0  0  0  0  0  0  0  0  0  0  0  0
   -3.4625   -2.2885    7.5845 C   0  0  0  0  0  0  0  0  0  0  0  0
   -4.9541   -2.5722    7.2039 C   0  0  0  0  0  0  0  0  0  0  0  0
   -5.9478   -1.7663    7.8588 N   0  0  0  0  0  0  0  0  0  0  0  0
   -5.4358   -0.4919    8.2734 C   0  0  0  0  0  0  0  0  0  0  0  0
    5.0553   -0.7430   11.5787 C   0  0  0  0  0  0  0  0  0  0  0  0
    6.4489   -0.7797   11.1315 C   0  0  0  0  0  0  0  0  0  0  0  0
    7.5226   -0.6061   12.4195 S   0  0  0  0  0  0  0  0  0  0  0  0
    6.9770   -1.7172   13.4122 C   0  0  0  0  0  0  0  0  0  0  0  0
    7.7637   -1.8494   14.6493 C   0  0  0  0  0  0  0  0  0  0  0  0
    7.6161   -3.0060   15.2377 F   0  0  0  0  0  0  0  0  0  0  0  0
    9.0988   -1.6280   14.6997 F   0  0  0  0  0  0  0  0  0  0  0  0
    7.3170   -0.9096   15.5424 F   0  0  0  0  0  0  0  0  0  0  0  0
    5.9649   -2.0666   12.5497 C   0  0  0  0  0  0  0  0  0  0  0  0
    2.2316   -2.2088   10.7641 H   0  0  0  0  0  0  0  0  0  0  0  0
    0.5945   -1.8907    9.6314 H   0  0  0  0  0  0  0  0  0  0  0  0
   -0.1772   -0.9370   11.1727 H   0  0  0  0  0  0  0  0  0  0  0  0
   -3.1612   -1.5081    6.8734 H   0  0  0  0  0  0  0  0  0  0  0  0
   -2.9560   -3.2417    7.6303 H   0  0  0  0  0  0  0  0  0  0  0  0
   -5.1715   -3.6307    7.3518 H   0  0  0  0  0  0  0  0  0  0  0  0
   -5.1349   -2.5149    6.1437 H   0  0  0  0  0  0  0  0  0  0  0  0
   -6.8071   -1.6755    7.3207 H   0  0  0  0  0  0  0  0  0  0  0  0
   -6.1303   -0.1002    9.0141 H   0  0  0  0  0  0  0  0  0  0  0  0
   -5.4766    0.1980    7.4209 H   0  0  0  0  0  0  0  0  0  0  0  0
    6.7452   -0.4631   10.1782 H   0  0  0  0  0  0  0  0  0  0  0  0
    5.3330   -2.9543   12.6620 H   0  0  0  0  0  0  0  0  0  0  0  0
  1  2  2  0
  2  3  1  0
  3  4  1  0
  4  5  1  0
  5  6  2  0
  6  7  1  0
  7  8  2  0
  8  9  1  0
  9 10  1  0
 10 11  1  0
 11 12  1  0
 12 13  1  0
  2 14  1  0
 14 15  2  0
 15 16  1  0
 16 17  1  0
 17 18  1  0
 18 19  1  0
 18 20  1  0
 18 21  1  0
 17 22  2  0
  9  5  1  0
 22 14  1  0
 13  8  1  0
  3 23  1  0
  4 24  1  0
  4 25  1  0
 10 26  1  0
 10 27  1  0
 11 28  1  0
 11 29  1  0
 12 30  1  0
 13 31  1  0
 13 32  1  0
 15 33  1  0
 22 34  1  0
M  END
>  <Energy>  (1209) 
683.75931938235453

>  <compound_id>  (1209) 
72701

>  <target_id>  (1209) 
1

>  <reference_id>  (1209) 
66

>  <inspiration_ids>  (1209) 
[66, 65]

>  <energy_score>  (1209) 
633.8462134906586

>  <distance_score>  (1209) 
6.423947314852095

>  <path>  (1209) 
/opt/xchem-fragalysis-2/maxwin/BulkDock/SCRATCH/511017/C72701-P66/C72701-P66.minimised.mol

>  <scratch_subdir>  (1209) 
/opt/xchem-fragalysis-2/maxwin/BulkDock/SCRATCH/511017/C72701-P66

>  <fragmenstein_runtime>  (1209) 
8.45685863494873

>  <fragmenstein_outcome>  (1209) 
too moved

>  <fragmenstein_mode>  (1209) 
expansion

>  <fragmenstein_error>  (1209) 


$$$$
C72701-P65
     RDKit          3D

 34 36  0  0  0  0  0  0  0  0999 V2000
    3.7621   -3.4880   10.2876 O   0  0  0  0  0  0  0  0  0  0  0  0
    3.6987   -2.5982   11.0960 C   0  0  0  0  0  0  0  0  0  0  0  0
    2.1021   -1.4551   10.9518 N   0  0  0  0  0  0  0  0  0  0  0  0
    0.5592   -1.3860    9.5908 C   0  0  0  0  0  0  0  0  0  0  0  0
   -1.4764   -1.3411    8.9666 C   0  0  0  0  0  0  0  0  0  0  0  0
   -2.5724   -2.1540    9.0188 N   0  0  0  0  0  0  0  0  0  0  0  0
   -3.7905   -1.4020    8.9765 N   0  0  0  0  0  0  0  0  0  0  0  0
   -3.5567   -0.2862    8.3431 C   0  0  0  0  0  0  0  0  0  0  0  0
   -2.3501   -0.6229    7.7720 N   0  0  0  0  0  0  0  0  0  0  0  0
   -2.7014   -1.3881    6.5436 C   0  0  0  0  0  0  0  0  0  0  0  0
   -3.9572   -0.8974    5.7821 C   0  0  0  0  0  0  0  0  0  0  0  0
   -4.4115    0.4449    6.1427 N   0  0  0  0  0  0  0  0  0  0  0  0
   -4.5621    0.5410    7.6060 C   0  0  0  0  0  0  0  0  0  0  0  0
    5.3878   -2.5880   12.1905 C   0  0  0  0  0  0  0  0  0  0  0  0
    5.8987   -2.6445   13.8292 C   0  0  0  0  0  0  0  0  0  0  0  0
    7.2992   -2.1445   14.6002 S   0  0  0  0  0  0  0  0  0  0  0  0
    7.6627   -1.1671   13.3479 C   0  0  0  0  0  0  0  0  0  0  0  0
    8.9082   -0.2061   13.9337 C   0  0  0  0  0  0  0  0  0  0  0  0
    8.4466    0.5323   15.0005 F   0  0  0  0  0  0  0  0  0  0  0  0
    9.9340   -0.8854   14.5626 F   0  0  0  0  0  0  0  0  0  0  0  0
    9.4599    0.6838   13.0665 F   0  0  0  0  0  0  0  0  0  0  0  0
    6.7989   -1.4262   12.2101 C   0  0  0  0  0  0  0  0  0  0  0  0
    2.1930   -0.6946   11.6175 H   0  0  0  0  0  0  0  0  0  0  0  0
    1.1438   -1.6654    8.7275 H   0  0  0  0  0  0  0  0  0  0  0  0
    0.1664   -1.4033   10.6392 H   0  0  0  0  0  0  0  0  0  0  0  0
   -2.9260   -2.4090    6.8609 H   0  0  0  0  0  0  0  0  0  0  0  0
   -1.8227   -1.3602    5.9256 H   0  0  0  0  0  0  0  0  0  0  0  0
   -3.7656   -0.9427    4.7036 H   0  0  0  0  0  0  0  0  0  0  0  0
   -4.7803   -1.6038    5.9556 H   0  0  0  0  0  0  0  0  0  0  0  0
   -3.7401    1.1347    5.8251 H   0  0  0  0  0  0  0  0  0  0  0  0
   -5.5736    0.1983    7.8386 H   0  0  0  0  0  0  0  0  0  0  0  0
   -4.4683    1.5914    7.8849 H   0  0  0  0  0  0  0  0  0  0  0  0
    5.2533   -2.8952   14.6480 H   0  0  0  0  0  0  0  0  0  0  0  0
    7.0289   -0.8859   11.3071 H   0  0  0  0  0  0  0  0  0  0  0  0
  1  2  2  0
  2  3  1  0
  3  4  1  0
  4  5  1  0
  5  6  2  0
  6  7  1  0
  7  8  2  0
  8  9  1  0
  9 10  1  0
 10 11  1  0
 11 12  1  0
 12 13  1  0
  2 14  1  0
 14 15  2  0
 15 16  1  0
 16 17  1  0
 17 18  1  0
 18 19  1  0
 18 20  1  0
 18 21  1  0
 17 22  2  0
  9  5  1  0
 22 14  1  0
 13  8  1  0
  3 23  1  0
  4 24  1  0
  4 25  1  0
 10 26  1  0
 10 27  1  0
 11 28  1  0
 11 29  1  0
 12 30  1  0
 13 31  1  0
 13 32  1  0
 15 33  1  0
 22 34  1  0
M  END
>  <Energy>  (1210) 
802.16119846581887

>  <compound_id>  (1210) 
72701

>  <target_id>  (1210) 
1

>  <reference_id>  (1210) 
65

>  <inspiration_ids>  (1210) 
[66, 65]

>  <energy_score>  (1210) 
752.2480925741199

>  <distance_score>  (1210) 
6.002961546355772

>  <path>  (1210) 
/opt/xchem-fragalysis-2/maxwin/BulkDock/SCRATCH/511017/C72701-P65/C72701-P65.minimised.mol

>  <scratch_subdir>  (1210) 
/opt/xchem-fragalysis-2/maxwin/BulkDock/SCRATCH/511017/C72701-P65

>  <fragmenstein_runtime>  (1210) 
5.874667644500732

>  <fragmenstein_outcome>  (1210) 
too moved

>  <fragmenstein_mode>  (1210) 
expansion

>  <fragmenstein_error>  (1210) 


$$$$
C72684-P66
     RDKit          3D

 38 40  0  0  0  0  0  0  0  0999 V2000
   10.3496    0.0325   13.4553 C   0  0  0  0  0  0  0  0  0  0  0  0
    8.8427    0.1982   12.9698 C   0  0  0  0  0  0  0  0  0  0  0  0
    7.5431   -0.6576   12.0362 O   0  0  0  0  0  0  0  0  0  0  0  0
    6.6400   -1.5931   12.6173 C   0  0  0  0  0  0  0  0  0  0  0  0
    7.3975   -1.4885   14.1797 S   0  0  0  0  0  0  0  0  0  0  0  0
    6.8001   -2.8004   14.6411 C   0  0  0  0  0  0  0  0  0  0  0  0
    5.5395   -2.8513   14.2186 C   0  0  0  0  0  0  0  0  0  0  0  0
    5.2464   -2.6994   12.4604 C   0  0  0  0  0  0  0  0  0  0  0  0
    3.4587   -2.6837   11.5048 C   0  0  0  0  0  0  0  0  0  0  0  0
    3.2982   -3.7353   10.9464 O   0  0  0  0  0  0  0  0  0  0  0  0
    2.0811   -1.2900   11.2047 N   0  0  0  0  0  0  0  0  0  0  0  0
    0.4836   -1.2395   10.0052 C   0  0  0  0  0  0  0  0  0  0  0  0
   -1.4887   -1.0317    9.1674 C   0  0  0  0  0  0  0  0  0  0  0  0
   -2.3810   -2.0651    8.8169 N   0  0  0  0  0  0  0  0  0  0  0  0
   -3.7332   -1.6166    9.0737 N   0  0  0  0  0  0  0  0  0  0  0  0
   -3.8334   -0.3270    8.8469 C   0  0  0  0  0  0  0  0  0  0  0  0
   -2.5432   -0.2283    8.2381 N   0  0  0  0  0  0  0  0  0  0  0  0
   -3.0329   -1.0524    6.9625 C   0  0  0  0  0  0  0  0  0  0  0  0
   -4.5566   -1.8072    6.9810 C   0  0  0  0  0  0  0  0  0  0  0  0
   -5.5656   -0.7495    7.0787 N   0  0  0  0  0  0  0  0  0  0  0  0
   -5.1881    0.0872    8.2284 C   0  0  0  0  0  0  0  0  0  0  0  0
   10.5320   -0.8024   14.1414 H   0  0  0  0  0  0  0  0  0  0  0  0
   10.6130    0.9372   14.0217 H   0  0  0  0  0  0  0  0  0  0  0  0
   11.0574    0.0135   12.6361 H   0  0  0  0  0  0  0  0  0  0  0  0
    9.0573    1.0412   12.3656 H   0  0  0  0  0  0  0  0  0  0  0  0
    8.4493    0.4503   13.9356 H   0  0  0  0  0  0  0  0  0  0  0  0
    7.4662   -3.1013   15.4031 H   0  0  0  0  0  0  0  0  0  0  0  0
    4.8077   -3.2385   14.8928 H   0  0  0  0  0  0  0  0  0  0  0  0
    2.3818   -0.4340   11.6615 H   0  0  0  0  0  0  0  0  0  0  0  0
    0.0160   -1.0760   10.9311 H   0  0  0  0  0  0  0  0  0  0  0  0
    0.8798   -2.0716    9.4482 H   0  0  0  0  0  0  0  0  0  0  0  0
   -3.0828   -0.4488    6.0800 H   0  0  0  0  0  0  0  0  0  0  0  0
   -2.1130   -1.6232    6.9141 H   0  0  0  0  0  0  0  0  0  0  0  0
   -4.8005   -2.4904    6.1688 H   0  0  0  0  0  0  0  0  0  0  0  0
   -4.7193   -2.5805    7.7073 H   0  0  0  0  0  0  0  0  0  0  0  0
   -6.4653   -1.1904    7.2777 H   0  0  0  0  0  0  0  0  0  0  0  0
   -5.9827   -0.0624    8.9630 H   0  0  0  0  0  0  0  0  0  0  0  0
   -5.2135    1.1177    7.8837 H   0  0  0  0  0  0  0  0  0  0  0  0
  1  2  1  0
  2  3  1  0
  3  4  1  0
  4  5  1  0
  5  6  1  0
  6  7  2  0
  7  8  1  0
  8  9  1  0
  9 10  2  0
  9 11  1  0
 11 12  1  0
 12 13  1  0
 13 14  2  0
 14 15  1  0
 15 16  2  0
 16 17  1  0
 17 18  1  0
 18 19  1  0
 19 20  1  0
 20 21  1  0
  8  4  2  0
 17 13  1  0
 21 16  1  0
  1 22  1  0
  1 23  1  0
  1 24  1  0
  2 25  1  0
  2 26  1  0
  6 27  1  0
  7 28  1  0
 11 29  1  0
 12 30  1  0
 12 31  1  0
 18 32  1  0
 18 33  1  0
 19 34  1  0
 19 35  1  0
 20 36  1  0
 21 37  1  0
 21 38  1  0
M  END
>  <Energy>  (1211) 
1026.8037707867004

>  <compound_id>  (1211) 
72684

>  <target_id>  (1211) 
1

>  <reference_id>  (1211) 
66

>  <inspiration_ids>  (1211) 
[66, 65]

>  <energy_score>  (1211) 
982.9207573982737

>  <distance_score>  (1211) 
6.145579946412874

>  <path>  (1211) 
/opt/xchem-fragalysis-2/maxwin/BulkDock/SCRATCH/511017/C72684-P66/C72684-P66.minimised.mol

>  <scratch_subdir>  (1211) 
/opt/xchem-fragalysis-2/maxwin/BulkDock/SCRATCH/511017/C72684-P66

>  <fragmenstein_runtime>  (1211) 
7.140339612960815

>  <fragmenstein_outcome>  (1211) 
too moved

>  <fragmenstein_mode>  (1211) 
expansion

>  <fragmenstein_error>  (1211) 


$$$$
C72684-P65
     RDKit          3D

 38 40  0  0  0  0  0  0  0  0999 V2000
    8.9893   -0.3543   16.2232 C   0  0  0  0  0  0  0  0  0  0  0  0
    7.4734   -0.5355   16.1696 C   0  0  0  0  0  0  0  0  0  0  0  0
    6.7257   -1.0645   14.9830 O   0  0  0  0  0  0  0  0  0  0  0  0
    6.5310   -2.1588   14.1360 C   0  0  0  0  0  0  0  0  0  0  0  0
    8.1748   -2.2805   14.1872 S   0  0  0  0  0  0  0  0  0  0  0  0
    7.8252   -0.8187   13.0026 C   0  0  0  0  0  0  0  0  0  0  0  0
    6.9816   -1.2796   12.0226 C   0  0  0  0  0  0  0  0  0  0  0  0
    6.0251   -2.2412   12.4810 C   0  0  0  0  0  0  0  0  0  0  0  0
    4.3257   -2.9599   11.8830 C   0  0  0  0  0  0  0  0  0  0  0  0
    4.0023   -4.1125   12.0729 O   0  0  0  0  0  0  0  0  0  0  0  0
    3.4837   -1.7340   11.2742 N   0  0  0  0  0  0  0  0  0  0  0  0
    1.6436   -1.5742   10.7874 C   0  0  0  0  0  0  0  0  0  0  0  0
    0.1782   -1.1261    9.4955 C   0  0  0  0  0  0  0  0  0  0  0  0
    0.1801   -2.1294    8.7565 N   0  0  0  0  0  0  0  0  0  0  0  0
   -1.6873   -2.3168    8.2831 N   0  0  0  0  0  0  0  0  0  0  0  0
   -2.6452   -1.8002    9.0098 C   0  0  0  0  0  0  0  0  0  0  0  0
   -1.6236   -1.0044    8.8250 N   0  0  0  0  0  0  0  0  0  0  0  0
   -2.2889   -0.5581    7.1948 C   0  0  0  0  0  0  0  0  0  0  0  0
   -3.2959    0.5369    7.2991 C   0  0  0  0  0  0  0  0  0  0  0  0
   -4.1593    0.1387    8.3586 N   0  0  0  0  0  0  0  0  0  0  0  0
   -4.0701   -1.2894    8.6810 C   0  0  0  0  0  0  0  0  0  0  0  0
    9.2511    0.2733   17.0822 H   0  0  0  0  0  0  0  0  0  0  0  0
    9.3630    0.1600   15.3320 H   0  0  0  0  0  0  0  0  0  0  0  0
    9.5377   -1.2900   16.3288 H   0  0  0  0  0  0  0  0  0  0  0  0
    7.1903    0.5285   16.1957 H   0  0  0  0  0  0  0  0  0  0  0  0
    6.9165   -0.7701   17.0670 H   0  0  0  0  0  0  0  0  0  0  0  0
    8.5584   -0.0189   13.0025 H   0  0  0  0  0  0  0  0  0  0  0  0
    7.0754   -0.8064   11.0680 H   0  0  0  0  0  0  0  0  0  0  0  0
    4.0417   -0.8730   11.3344 H   0  0  0  0  0  0  0  0  0  0  0  0
    1.0907   -1.3197   11.7080 H   0  0  0  0  0  0  0  0  0  0  0  0
    2.0702   -0.5688   10.8700 H   0  0  0  0  0  0  0  0  0  0  0  0
   -2.8934   -1.4409    6.8784 H   0  0  0  0  0  0  0  0  0  0  0  0
   -1.5883   -0.8385    6.4206 H   0  0  0  0  0  0  0  0  0  0  0  0
   -2.8855    1.5186    7.5234 H   0  0  0  0  0  0  0  0  0  0  0  0
   -3.8630    0.6067    6.3654 H   0  0  0  0  0  0  0  0  0  0  0  0
   -5.1292    0.4265    8.2435 H   0  0  0  0  0  0  0  0  0  0  0  0
   -4.5594   -1.8952    7.9079 H   0  0  0  0  0  0  0  0  0  0  0  0
   -4.6496   -1.3340    9.5648 H   0  0  0  0  0  0  0  0  0  0  0  0
  1  2  1  0
  2  3  1  0
  3  4  1  0
  4  5  1  0
  5  6  1  0
  6  7  2  0
  7  8  1  0
  8  9  1  0
  9 10  2  0
  9 11  1  0
 11 12  1  0
 12 13  1  0
 13 14  2  0
 14 15  1  0
 15 16  2  0
 16 17  1  0
 17 18  1  0
 18 19  1  0
 19 20  1  0
 20 21  1  0
  8  4  2  0
 17 13  1  0
 21 16  1  0
  1 22  1  0
  1 23  1  0
  1 24  1  0
  2 25  1  0
  2 26  1  0
  6 27  1  0
  7 28  1  0
 11 29  1  0
 12 30  1  0
 12 31  1  0
 18 32  1  0
 18 33  1  0
 19 34  1  0
 19 35  1  0
 20 36  1  0
 21 37  1  0
 21 38  1  0
M  END
>  <Energy>  (1212) 
951.44923340139474

>  <compound_id>  (1212) 
72684

>  <target_id>  (1212) 
1

>  <reference_id>  (1212) 
65

>  <inspiration_ids>  (1212) 
[66, 65]

>  <energy_score>  (1212) 
907.5662200129686

>  <distance_score>  (1212) 
6.403783725978997

>  <path>  (1212) 
/opt/xchem-fragalysis-2/maxwin/BulkDock/SCRATCH/511017/C72684-P65/C72684-P65.minimised.mol

>  <scratch_subdir>  (1212) 
/opt/xchem-fragalysis-2/maxwin/BulkDock/SCRATCH/511017/C72684-P65

>  <fragmenstein_runtime>  (1212) 
8.873536586761475

>  <fragmenstein_outcome>  (1212) 
too moved

>  <fragmenstein_mode>  (1212) 
expansion

>  <fragmenstein_error>  (1212) 


$$$$
C72702-P66
     RDKit          3D

 38 40  0  0  0  0  0  0  0  0999 V2000
    6.5652    4.5390   16.8261 C   0  0  0  0  0  0  0  0  0  0  0  0
    7.2845    4.4226   15.5985 O   0  0  0  0  0  0  0  0  0  0  0  0
    7.1153    5.4920   14.7676 C   0  0  0  0  0  0  0  0  0  0  0  0
    6.5148    6.5198   15.0464 O   0  0  0  0  0  0  0  0  0  0  0  0
    7.7607    5.2227   13.5024 C   0  0  0  0  0  0  0  0  0  0  0  0
    9.4397    4.8508   13.4600 S   0  0  0  0  0  0  0  0  0  0  0  0
    9.4649    4.9078   11.7503 C   0  0  0  0  0  0  0  0  0  0  0  0
    8.2030    5.0957   11.2207 C   0  0  0  0  0  0  0  0  0  0  0  0
    7.2027    5.2121   12.2357 C   0  0  0  0  0  0  0  0  0  0  0  0
    5.4884    5.4073   11.9183 S   0  0  0  0  0  0  0  0  0  0  0  0
    5.4276    6.7737   11.4536 O   0  0  0  0  0  0  0  0  0  0  0  0
    4.8566    4.9293   13.1177 O   0  0  0  0  0  0  0  0  0  0  0  0
    5.0201    4.4535   10.5887 N   0  0  0  0  0  0  0  0  0  0  0  0
    3.8552    3.5102   10.7684 C   0  0  0  0  0  0  0  0  0  0  0  0
    2.5411    4.1744   10.5078 C   0  0  0  0  0  0  0  0  0  0  0  0
    1.7201    4.6703   11.4166 N   0  0  0  0  0  0  0  0  0  0  0  0
    0.5671    5.0943   10.7970 N   0  0  0  0  0  0  0  0  0  0  0  0
    0.6921    4.8415    9.5166 C   0  0  0  0  0  0  0  0  0  0  0  0
    1.9244    4.2781    9.2910 N   0  0  0  0  0  0  0  0  0  0  0  0
    2.3761    3.8352    7.9859 C   0  0  0  0  0  0  0  0  0  0  0  0
    1.4274    4.3252    6.8823 C   0  0  0  0  0  0  0  0  0  0  0  0
    0.0414    4.1418    7.3194 N   0  0  0  0  0  0  0  0  0  0  0  0
   -0.2751    5.0653    8.4134 C   0  0  0  0  0  0  0  0  0  0  0  0
    6.7135    3.6156   17.3928 H   0  0  0  0  0  0  0  0  0  0  0  0
    6.9518    5.3747   17.4175 H   0  0  0  0  0  0  0  0  0  0  0  0
    5.4938    4.6583   16.6361 H   0  0  0  0  0  0  0  0  0  0  0  0
   10.3989    4.7963   11.2140 H   0  0  0  0  0  0  0  0  0  0  0  0
    8.0002    5.1442   10.1565 H   0  0  0  0  0  0  0  0  0  0  0  0
    4.8532    5.0933    9.8110 H   0  0  0  0  0  0  0  0  0  0  0  0
    4.0006    2.6889   10.0571 H   0  0  0  0  0  0  0  0  0  0  0  0
    3.8763    3.0552   11.7630 H   0  0  0  0  0  0  0  0  0  0  0  0
    3.3860    4.2257    7.8269 H   0  0  0  0  0  0  0  0  0  0  0  0
    2.4151    2.7412    8.0189 H   0  0  0  0  0  0  0  0  0  0  0  0
    1.6178    3.7689    5.9599 H   0  0  0  0  0  0  0  0  0  0  0  0
    1.6171    5.3812    6.6506 H   0  0  0  0  0  0  0  0  0  0  0  0
   -0.6172    4.2771    6.5435 H   0  0  0  0  0  0  0  0  0  0  0  0
   -1.3024    4.9025    8.7456 H   0  0  0  0  0  0  0  0  0  0  0  0
   -0.2129    6.1042    8.0689 H   0  0  0  0  0  0  0  0  0  0  0  0
  1  2  1  0
  2  3  1  0
  3  4  2  0
  3  5  1  0
  5  6  1  0
  6  7  1  0
  7  8  2  0
  8  9  1  0
  9 10  1  0
 10 11  2  0
 10 12  2  0
 10 13  1  0
 13 14  1  0
 14 15  1  0
 15 16  2  0
 16 17  1  0
 17 18  2  0
 18 19  1  0
 19 20  1  0
 20 21  1  0
 21 22  1  0
 22 23  1  0
  9  5  2  0
 19 15  1  0
 23 18  1  0
  1 24  1  0
  1 25  1  0
  1 26  1  0
  7 27  1  0
  8 28  1  0
 13 29  1  0
 14 30  1  0
 14 31  1  0
 20 32  1  0
 20 33  1  0
 21 34  1  0
 21 35  1  0
 22 36  1  0
 23 37  1  0
 23 38  1  0
M  END
>  <Energy>  (1213) 
-59.65031806157284

>  <compound_id>  (1213) 
72702

>  <target_id>  (1213) 
1

>  <reference_id>  (1213) 
66

>  <inspiration_ids>  (1213) 
[66, 65]

>  <energy_score>  (1213) 
-49.61402991126971

>  <distance_score>  (1213) 
9.779923469753875

>  <path>  (1213) 
/opt/xchem-fragalysis-2/maxwin/BulkDock/SCRATCH/511017/C72702-P66/C72702-P66.minimised.mol

>  <scratch_subdir>  (1213) 
/opt/xchem-fragalysis-2/maxwin/BulkDock/SCRATCH/511017/C72702-P66

>  <fragmenstein_runtime>  (1213) 
12.549681425094604

>  <fragmenstein_outcome>  (1213) 
too moved

>  <fragmenstein_mode>  (1213) 
expansion

>  <fragmenstein_error>  (1213) 


$$$$
C72702-P65
     RDKit          3D

 38 40  0  0  0  0  0  0  0  0999 V2000
   12.2331   -2.6444   15.0881 C   0  0  0  0  0  0  0  0  0  0  0  0
   11.1868   -1.7362   14.7426 O   0  0  0  0  0  0  0  0  0  0  0  0
    9.9253   -2.2932   14.7687 C   0  0  0  0  0  0  0  0  0  0  0  0
    9.7544   -3.4460   15.1130 O   0  0  0  0  0  0  0  0  0  0  0  0
    8.8534   -1.3342   14.4248 C   0  0  0  0  0  0  0  0  0  0  0  0
    9.3312    0.2738   14.9283 S   0  0  0  0  0  0  0  0  0  0  0  0
    8.2727   -0.0200   16.1980 C   0  0  0  0  0  0  0  0  0  0  0  0
    7.3284   -0.9629   15.7353 C   0  0  0  0  0  0  0  0  0  0  0  0
    7.4383   -1.4482   14.2464 C   0  0  0  0  0  0  0  0  0  0  0  0
    6.1068   -1.5503   12.4470 S   0  0  0  0  0  0  0  0  0  0  0  0
    7.2075   -1.3716   11.5379 O   0  0  0  0  0  0  0  0  0  0  0  0
    5.9746   -2.6570   13.4155 O   0  0  0  0  0  0  0  0  0  0  0  0
    3.8971   -2.0235   11.3579 N   0  0  0  0  0  0  0  0  0  0  0  0
    1.8554   -1.4249   10.8030 C   0  0  0  0  0  0  0  0  0  0  0  0
    0.1636   -1.2349    9.4522 C   0  0  0  0  0  0  0  0  0  0  0  0
   -1.0763   -2.0109    8.5265 N   0  0  0  0  0  0  0  0  0  0  0  0
   -1.9218   -1.4104    7.2110 N   0  0  0  0  0  0  0  0  0  0  0  0
   -2.3358   -0.3796    7.9184 C   0  0  0  0  0  0  0  0  0  0  0  0
   -1.7801   -1.2074    9.1530 N   0  0  0  0  0  0  0  0  0  0  0  0
   -3.2236   -2.1016    8.8433 C   0  0  0  0  0  0  0  0  0  0  0  0
   -4.2311   -1.9171    7.5185 C   0  0  0  0  0  0  0  0  0  0  0  0
   -4.5702   -0.5313    7.1237 N   0  0  0  0  0  0  0  0  0  0  0  0
   -3.5981    0.3564    7.7456 C   0  0  0  0  0  0  0  0  0  0  0  0
   12.2573   -3.4840   14.3881 H   0  0  0  0  0  0  0  0  0  0  0  0
   13.1832   -2.1080   15.0168 H   0  0  0  0  0  0  0  0  0  0  0  0
   12.1114   -2.9963   16.1173 H   0  0  0  0  0  0  0  0  0  0  0  0
    8.2416    0.5702   17.1064 H   0  0  0  0  0  0  0  0  0  0  0  0
    6.5538   -0.9403   16.4700 H   0  0  0  0  0  0  0  0  0  0  0  0
    4.0714   -0.9967   11.3307 H   0  0  0  0  0  0  0  0  0  0  0  0
    2.2100   -0.3728   10.9642 H   0  0  0  0  0  0  0  0  0  0  0  0
    1.3042   -1.3238   11.7410 H   0  0  0  0  0  0  0  0  0  0  0  0
   -2.9512   -3.1412    8.8510 H   0  0  0  0  0  0  0  0  0  0  0  0
   -3.8625   -1.5909    9.5588 H   0  0  0  0  0  0  0  0  0  0  0  0
   -3.8196   -2.4662    6.6612 H   0  0  0  0  0  0  0  0  0  0  0  0
   -5.1851   -2.4152    7.7079 H   0  0  0  0  0  0  0  0  0  0  0  0
   -4.4561   -0.4798    6.1120 H   0  0  0  0  0  0  0  0  0  0  0  0
   -3.4600    1.2498    7.1353 H   0  0  0  0  0  0  0  0  0  0  0  0
   -3.9730    0.6889    8.7019 H   0  0  0  0  0  0  0  0  0  0  0  0
  1  2  1  0
  2  3  1  0
  3  4  2  0
  3  5  1  0
  5  6  1  0
  6  7  1  0
  7  8  2  0
  8  9  1  0
  9 10  1  0
 10 11  2  0
 10 12  2  0
 10 13  1  0
 13 14  1  0
 14 15  1  0
 15 16  2  0
 16 17  1  0
 17 18  2  0
 18 19  1  0
 19 20  1  0
 20 21  1  0
 21 22  1  0
 22 23  1  0
  9  5  2  0
 19 15  1  0
 23 18  1  0
  1 24  1  0
  1 25  1  0
  1 26  1  0
  7 27  1  0
  8 28  1  0
 13 29  1  0
 14 30  1  0
 14 31  1  0
 20 32  1  0
 20 33  1  0
 21 34  1  0
 21 35  1  0
 22 36  1  0
 23 37  1  0
 23 38  1  0
M  END
>  <Energy>  (1214) 
1375.5899138851346

>  <compound_id>  (1214) 
72702

>  <target_id>  (1214) 
1

>  <reference_id>  (1214) 
65

>  <inspiration_ids>  (1214) 
[66, 65]

>  <energy_score>  (1214) 
1385.6262020354343

>  <distance_score>  (1214) 
5.494596925327612

>  <path>  (1214) 
/opt/xchem-fragalysis-2/maxwin/BulkDock/SCRATCH/511017/C72702-P65/C72702-P65.minimised.mol

>  <scratch_subdir>  (1214) 
/opt/xchem-fragalysis-2/maxwin/BulkDock/SCRATCH/511017/C72702-P65

>  <fragmenstein_runtime>  (1214) 
7.723132848739624

>  <fragmenstein_outcome>  (1214) 
too moved

>  <fragmenstein_mode>  (1214) 
expansion

>  <fragmenstein_error>  (1214) 


$$$$
C72676-P66
     RDKit          3D

 32 34  0  0  0  0  0  0  0  0999 V2000
    6.0843   -2.4080   12.9836 O   0  0  0  0  0  0  0  0  0  0  0  0
    5.9624   -1.1768   12.1951 S   0  0  0  0  0  0  0  0  0  0  0  0
    6.8453   -1.0169   11.0533 O   0  0  0  0  0  0  0  0  0  0  0  0
    3.8456   -2.1210   11.5266 N   0  0  0  0  0  0  0  0  0  0  0  0
    1.8375   -1.5118   11.3239 C   0  0  0  0  0  0  0  0  0  0  0  0
    0.3495   -1.3744    9.9542 C   0  0  0  0  0  0  0  0  0  0  0  0
    0.5243   -2.3390    8.7267 N   0  0  0  0  0  0  0  0  0  0  0  0
   -0.9409   -1.8584    7.5122 N   0  0  0  0  0  0  0  0  0  0  0  0
   -2.0038   -1.8318    8.2142 C   0  0  0  0  0  0  0  0  0  0  0  0
   -1.4573   -0.9907    9.2355 N   0  0  0  0  0  0  0  0  0  0  0  0
   -2.5645    0.0963    8.8723 C   0  0  0  0  0  0  0  0  0  0  0  0
   -3.9515   -0.2152    8.1050 C   0  0  0  0  0  0  0  0  0  0  0  0
   -4.4051   -1.4759    8.5544 N   0  0  0  0  0  0  0  0  0  0  0  0
   -3.3909   -2.3089    7.9397 C   0  0  0  0  0  0  0  0  0  0  0  0
    7.6854   -0.9527   13.4427 C   0  0  0  0  0  0  0  0  0  0  0  0
    7.8882   -1.9812   14.8172 S   0  0  0  0  0  0  0  0  0  0  0  0
    9.5956   -1.7509   14.9403 C   0  0  0  0  0  0  0  0  0  0  0  0
    9.9431   -0.5514   14.3450 C   0  0  0  0  0  0  0  0  0  0  0  0
    8.8322   -0.0407   13.5776 C   0  0  0  0  0  0  0  0  0  0  0  0
    9.2157    0.9292   12.7389 F   0  0  0  0  0  0  0  0  0  0  0  0
    3.8696   -3.0660   11.9447 H   0  0  0  0  0  0  0  0  0  0  0  0
    1.6573   -0.7444   12.0882 H   0  0  0  0  0  0  0  0  0  0  0  0
    1.4461   -2.3276   11.9542 H   0  0  0  0  0  0  0  0  0  0  0  0
   -2.1771    1.0359    8.5490 H   0  0  0  0  0  0  0  0  0  0  0  0
   -3.1440    0.1450    9.7308 H   0  0  0  0  0  0  0  0  0  0  0  0
   -4.7092    0.5361    8.3169 H   0  0  0  0  0  0  0  0  0  0  0  0
   -3.9417   -0.3185    7.0198 H   0  0  0  0  0  0  0  0  0  0  0  0
   -4.2591   -1.4888    9.5575 H   0  0  0  0  0  0  0  0  0  0  0  0
   -3.8161   -2.2679    6.9518 H   0  0  0  0  0  0  0  0  0  0  0  0
   -3.3751   -3.3918    8.0698 H   0  0  0  0  0  0  0  0  0  0  0  0
   10.2680   -2.4105   15.4685 H   0  0  0  0  0  0  0  0  0  0  0  0
   10.9444   -0.1405   14.3280 H   0  0  0  0  0  0  0  0  0  0  0  0
  1  2  2  0
  2  3  2  0
  2  4  1  0
  4  5  1  0
  5  6  1  0
  6  7  2  0
  7  8  1  0
  8  9  2  0
  9 10  1  0
 10 11  1  0
 11 12  1  0
 12 13  1  0
 13 14  1  0
  2 15  1  0
 15 16  1  0
 16 17  1  0
 17 18  2  0
 18 19  1  0
 19 20  1  0
 10  6  1  0
 19 15  2  0
 14  9  1  0
  4 21  1  0
  5 22  1  0
  5 23  1  0
 11 24  1  0
 11 25  1  0
 12 26  1  0
 12 27  1  0
 13 28  1  0
 14 29  1  0
 14 30  1  0
 17 31  1  0
 18 32  1  0
M  END
>  <Energy>  (1215) 
851.44769838045841

>  <compound_id>  (1215) 
72676

>  <target_id>  (1215) 
1

>  <reference_id>  (1215) 
66

>  <inspiration_ids>  (1215) 
[66, 65]

>  <energy_score>  (1215) 
861.718641448148

>  <distance_score>  (1215) 
6.50395933182396

>  <path>  (1215) 
/opt/xchem-fragalysis-2/maxwin/BulkDock/SCRATCH/511017/C72676-P66/C72676-P66.minimised.mol

>  <scratch_subdir>  (1215) 
/opt/xchem-fragalysis-2/maxwin/BulkDock/SCRATCH/511017/C72676-P66

>  <fragmenstein_runtime>  (1215) 
6.643249273300171

>  <fragmenstein_outcome>  (1215) 
too moved

>  <fragmenstein_mode>  (1215) 
expansion

>  <fragmenstein_error>  (1215) 


$$$$
C72676-P65
     RDKit          3D

 32 34  0  0  0  0  0  0  0  0999 V2000
    2.9624   -3.7881   12.7267 O   0  0  0  0  0  0  0  0  0  0  0  0
    3.4848   -3.1423   11.5325 S   0  0  0  0  0  0  0  0  0  0  0  0
    3.6800   -3.9505   10.3704 O   0  0  0  0  0  0  0  0  0  0  0  0
    1.8766   -1.7313   10.8410 N   0  0  0  0  0  0  0  0  0  0  0  0
    0.4105   -1.3745    9.4827 C   0  0  0  0  0  0  0  0  0  0  0  0
   -1.6096   -1.4180    8.8748 C   0  0  0  0  0  0  0  0  0  0  0  0
   -2.5175   -2.4208    8.8418 N   0  0  0  0  0  0  0  0  0  0  0  0
   -3.1845   -2.6336    7.6835 N   0  0  0  0  0  0  0  0  0  0  0  0
   -3.0829   -1.5489    6.9910 C   0  0  0  0  0  0  0  0  0  0  0  0
   -2.4871   -0.6040    7.8282 N   0  0  0  0  0  0  0  0  0  0  0  0
   -3.4802    0.4208    8.1655 C   0  0  0  0  0  0  0  0  0  0  0  0
   -4.5712    0.7274    7.1076 C   0  0  0  0  0  0  0  0  0  0  0  0
   -5.1076   -0.4164    6.3740 N   0  0  0  0  0  0  0  0  0  0  0  0
   -3.9859   -1.2069    5.8620 C   0  0  0  0  0  0  0  0  0  0  0  0
    5.5844   -2.6319   12.2813 C   0  0  0  0  0  0  0  0  0  0  0  0
    6.0325   -2.5598   14.4174 S   0  0  0  0  0  0  0  0  0  0  0  0
    7.5727   -1.9818   14.3321 C   0  0  0  0  0  0  0  0  0  0  0  0
    7.5362   -1.2017   13.2425 C   0  0  0  0  0  0  0  0  0  0  0  0
    6.6744   -1.5544   12.1906 C   0  0  0  0  0  0  0  0  0  0  0  0
    7.1059   -0.9186   11.1033 F   0  0  0  0  0  0  0  0  0  0  0  0
    2.3111   -2.1588   10.0080 H   0  0  0  0  0  0  0  0  0  0  0  0
   -0.0383   -1.2235   10.5417 H   0  0  0  0  0  0  0  0  0  0  0  0
    0.8369   -2.2579    9.0026 H   0  0  0  0  0  0  0  0  0  0  0  0
   -3.9438    0.0463    9.0699 H   0  0  0  0  0  0  0  0  0  0  0  0
   -2.9609    1.3594    8.2903 H   0  0  0  0  0  0  0  0  0  0  0  0
   -5.3992    1.2658    7.5783 H   0  0  0  0  0  0  0  0  0  0  0  0
   -4.1668    1.4299    6.3786 H   0  0  0  0  0  0  0  0  0  0  0  0
   -5.6131   -1.0169    7.0350 H   0  0  0  0  0  0  0  0  0  0  0  0
   -3.4627   -0.6638    5.0719 H   0  0  0  0  0  0  0  0  0  0  0  0
   -4.3761   -2.1229    5.4044 H   0  0  0  0  0  0  0  0  0  0  0  0
    8.2670   -1.9432   15.1590 H   0  0  0  0  0  0  0  0  0  0  0  0
    8.2306   -0.3751   13.1237 H   0  0  0  0  0  0  0  0  0  0  0  0
  1  2  2  0
  2  3  2  0
  2  4  1  0
  4  5  1  0
  5  6  1  0
  6  7  2  0
  7  8  1  0
  8  9  2  0
  9 10  1  0
 10 11  1  0
 11 12  1  0
 12 13  1  0
 13 14  1  0
  2 15  1  0
 15 16  1  0
 16 17  1  0
 17 18  2  0
 18 19  1  0
 19 20  1  0
 10  6  1  0
 19 15  2  0
 14  9  1  0
  4 21  1  0
  5 22  1  0
  5 23  1  0
 11 24  1  0
 11 25  1  0
 12 26  1  0
 12 27  1  0
 13 28  1  0
 14 29  1  0
 14 30  1  0
 17 31  1  0
 18 32  1  0
M  END
>  <Energy>  (1216) 
531.59120124094056

>  <compound_id>  (1216) 
72676

>  <target_id>  (1216) 
1

>  <reference_id>  (1216) 
65

>  <inspiration_ids>  (1216) 
[66, 65]

>  <energy_score>  (1216) 
541.8621443086327

>  <distance_score>  (1216) 
7.2824550602719205

>  <path>  (1216) 
/opt/xchem-fragalysis-2/maxwin/BulkDock/SCRATCH/511017/C72676-P65/C72676-P65.minimised.mol

>  <scratch_subdir>  (1216) 
/opt/xchem-fragalysis-2/maxwin/BulkDock/SCRATCH/511017/C72676-P65

>  <fragmenstein_runtime>  (1216) 
4.972517967224121

>  <fragmenstein_outcome>  (1216) 
too moved

>  <fragmenstein_mode>  (1216) 
expansion

>  <fragmenstein_error>  (1216) 


$$$$
C72704-P66
     RDKit          3D

 33 35  0  0  0  0  0  0  0  0999 V2000
    6.9273   -0.6959   10.4298 N   0  0  0  0  0  0  0  0  0  0  0  0
    6.7599   -1.0786   11.4827 C   0  0  0  0  0  0  0  0  0  0  0  0
    6.4008   -1.8347   12.5427 C   0  0  0  0  0  0  0  0  0  0  0  0
    7.3366   -1.5613   13.5476 C   0  0  0  0  0  0  0  0  0  0  0  0
    7.2423   -2.3826   14.5647 C   0  0  0  0  0  0  0  0  0  0  0  0
    5.6269   -2.8010   14.5617 S   0  0  0  0  0  0  0  0  0  0  0  0
    5.2724   -2.9181   12.5660 C   0  0  0  0  0  0  0  0  0  0  0  0
    3.1430   -3.2545   11.8391 S   0  0  0  0  0  0  0  0  0  0  0  0
    3.2931   -4.0320   10.6351 O   0  0  0  0  0  0  0  0  0  0  0  0
    2.6767   -3.9315   13.0437 O   0  0  0  0  0  0  0  0  0  0  0  0
    1.4457   -1.7780   11.5930 N   0  0  0  0  0  0  0  0  0  0  0  0
    0.3497   -1.3593   10.0192 C   0  0  0  0  0  0  0  0  0  0  0  0
   -1.5510   -1.0484    9.1032 C   0  0  0  0  0  0  0  0  0  0  0  0
   -2.0991    0.1754    8.8763 N   0  0  0  0  0  0  0  0  0  0  0  0
   -3.4080    0.2883    8.8241 N   0  0  0  0  0  0  0  0  0  0  0  0
   -3.7911   -0.7738    8.2321 C   0  0  0  0  0  0  0  0  0  0  0  0
   -2.7370   -1.7275    8.2674 N   0  0  0  0  0  0  0  0  0  0  0  0
   -3.2381   -3.0203    7.8524 C   0  0  0  0  0  0  0  0  0  0  0  0
   -4.6492   -3.0726    7.1025 C   0  0  0  0  0  0  0  0  0  0  0  0
   -5.6694   -2.1180    7.4621 N   0  0  0  0  0  0  0  0  0  0  0  0
   -5.1259   -0.8061    7.5916 C   0  0  0  0  0  0  0  0  0  0  0  0
    8.0927   -0.7803   13.5348 H   0  0  0  0  0  0  0  0  0  0  0  0
    7.9374   -2.4143   15.3725 H   0  0  0  0  0  0  0  0  0  0  0  0
    0.8109   -2.0575   12.3499 H   0  0  0  0  0  0  0  0  0  0  0  0
    0.8704   -2.0488    9.2951 H   0  0  0  0  0  0  0  0  0  0  0  0
    1.0229   -0.5246    9.8158 H   0  0  0  0  0  0  0  0  0  0  0  0
   -3.1642   -3.6895    8.6821 H   0  0  0  0  0  0  0  0  0  0  0  0
   -2.5998   -3.6124    7.2478 H   0  0  0  0  0  0  0  0  0  0  0  0
   -4.5583   -3.0983    6.0328 H   0  0  0  0  0  0  0  0  0  0  0  0
   -5.1008   -4.0306    7.2602 H   0  0  0  0  0  0  0  0  0  0  0  0
   -6.4593   -2.1349    6.8200 H   0  0  0  0  0  0  0  0  0  0  0  0
   -5.0795   -0.3084    6.6191 H   0  0  0  0  0  0  0  0  0  0  0  0
   -5.8230   -0.2088    8.1910 H   0  0  0  0  0  0  0  0  0  0  0  0
  1  2  3  0
  2  3  1  0
  3  4  1  0
  4  5  2  0
  5  6  1  0
  6  7  1  0
  7  8  1  0
  8  9  2  0
  8 10  2  0
  8 11  1  0
 11 12  1  0
 12 13  1  0
 13 14  2  0
 14 15  1  0
 15 16  2  0
 16 17  1  0
 17 18  1  0
 18 19  1  0
 19 20  1  0
 20 21  1  0
  7  3  2  0
 17 13  1  0
 21 16  1  0
  4 22  1  0
  5 23  1  0
 11 24  1  0
 12 25  1  0
 12 26  1  0
 18 27  1  0
 18 28  1  0
 19 29  1  0
 19 30  1  0
 20 31  1  0
 21 32  1  0
 21 33  1  0
M  END
>  <Energy>  (1217) 
479.39202768124966

>  <compound_id>  (1217) 
72704

>  <target_id>  (1217) 
1

>  <reference_id>  (1217) 
66

>  <inspiration_ids>  (1217) 
[66, 65]

>  <energy_score>  (1217) 
488.2310929624284

>  <distance_score>  (1217) 
7.427963818945432

>  <path>  (1217) 
/opt/xchem-fragalysis-2/maxwin/BulkDock/SCRATCH/511017/C72704-P66/C72704-P66.minimised.mol

>  <scratch_subdir>  (1217) 
/opt/xchem-fragalysis-2/maxwin/BulkDock/SCRATCH/511017/C72704-P66

>  <fragmenstein_runtime>  (1217) 
5.08639669418335

>  <fragmenstein_outcome>  (1217) 
too moved

>  <fragmenstein_mode>  (1217) 
expansion

>  <fragmenstein_error>  (1217) 


$$$$
C72704-P65
     RDKit          3D

 33 35  0  0  0  0  0  0  0  0999 V2000
   10.6665   -2.9523   15.0300 N   0  0  0  0  0  0  0  0  0  0  0  0
    9.5694   -2.5666   14.9643 C   0  0  0  0  0  0  0  0  0  0  0  0
    8.2207   -1.9663   15.0243 C   0  0  0  0  0  0  0  0  0  0  0  0
    8.0791   -0.9039   15.9891 C   0  0  0  0  0  0  0  0  0  0  0  0
    8.9802    0.0870   15.6971 C   0  0  0  0  0  0  0  0  0  0  0  0
    8.9537    0.1261   13.9626 S   0  0  0  0  0  0  0  0  0  0  0  0
    7.6049   -1.3459   13.9129 C   0  0  0  0  0  0  0  0  0  0  0  0
    6.1385   -1.6396   12.3860 S   0  0  0  0  0  0  0  0  0  0  0  0
    6.0241   -2.5959   13.5357 O   0  0  0  0  0  0  0  0  0  0  0  0
    7.2318   -1.6707   11.4556 O   0  0  0  0  0  0  0  0  0  0  0  0
    3.9701   -2.3029   11.4041 N   0  0  0  0  0  0  0  0  0  0  0  0
    1.9754   -1.6797   10.8839 C   0  0  0  0  0  0  0  0  0  0  0  0
    0.2930   -1.3263    9.6269 C   0  0  0  0  0  0  0  0  0  0  0  0
   -0.9504   -1.0095   10.6335 N   0  0  0  0  0  0  0  0  0  0  0  0
   -2.6130   -0.6151    9.6233 N   0  0  0  0  0  0  0  0  0  0  0  0
   -2.3258   -0.4681    8.3847 C   0  0  0  0  0  0  0  0  0  0  0  0
   -1.4505   -1.6033    8.7342 N   0  0  0  0  0  0  0  0  0  0  0  0
   -2.6706   -2.5894    8.2281 C   0  0  0  0  0  0  0  0  0  0  0  0
   -3.6032   -2.3044    6.9864 C   0  0  0  0  0  0  0  0  0  0  0  0
   -3.3291   -1.0671    6.2852 N   0  0  0  0  0  0  0  0  0  0  0  0
   -3.2889   -0.0755    7.3377 C   0  0  0  0  0  0  0  0  0  0  0  0
    7.2276   -0.6765   16.6121 H   0  0  0  0  0  0  0  0  0  0  0  0
    9.2741    0.9747   16.2419 H   0  0  0  0  0  0  0  0  0  0  0  0
    3.8666   -3.2256   11.8542 H   0  0  0  0  0  0  0  0  0  0  0  0
    1.4309   -2.0053   11.7955 H   0  0  0  0  0  0  0  0  0  0  0  0
    2.1573   -0.6411   11.2255 H   0  0  0  0  0  0  0  0  0  0  0  0
   -2.7801   -3.6325    8.4343 H   0  0  0  0  0  0  0  0  0  0  0  0
   -3.3626   -2.2897    8.9951 H   0  0  0  0  0  0  0  0  0  0  0  0
   -3.6396   -3.1598    6.3099 H   0  0  0  0  0  0  0  0  0  0  0  0
   -4.6433   -2.2676    7.3483 H   0  0  0  0  0  0  0  0  0  0  0  0
   -4.1031   -0.8543    5.6567 H   0  0  0  0  0  0  0  0  0  0  0  0
   -3.0317    0.9038    6.9430 H   0  0  0  0  0  0  0  0  0  0  0  0
   -4.2865    0.0511    7.7787 H   0  0  0  0  0  0  0  0  0  0  0  0
  1  2  3  0
  2  3  1  0
  3  4  1  0
  4  5  2  0
  5  6  1  0
  6  7  1  0
  7  8  1  0
  8  9  2  0
  8 10  2  0
  8 11  1  0
 11 12  1  0
 12 13  1  0
 13 14  2  0
 14 15  1  0
 15 16  2  0
 16 17  1  0
 17 18  1  0
 18 19  1  0
 19 20  1  0
 20 21  1  0
  7  3  2  0
 17 13  1  0
 21 16  1  0
  4 22  1  0
  5 23  1  0
 11 24  1  0
 12 25  1  0
 12 26  1  0
 18 27  1  0
 18 28  1  0
 19 29  1  0
 19 30  1  0
 20 31  1  0
 21 32  1  0
 21 33  1  0
M  END
>  <Energy>  (1218) 
1155.240134632895

>  <compound_id>  (1218) 
72704

>  <target_id>  (1218) 
1

>  <reference_id>  (1218) 
65

>  <inspiration_ids>  (1218) 
[66, 65]

>  <energy_score>  (1218) 
1164.0791999140677

>  <distance_score>  (1218) 
6.347189470953036

>  <path>  (1218) 
/opt/xchem-fragalysis-2/maxwin/BulkDock/SCRATCH/511017/C72704-P65/C72704-P65.minimised.mol

>  <scratch_subdir>  (1218) 
/opt/xchem-fragalysis-2/maxwin/BulkDock/SCRATCH/511017/C72704-P65

>  <fragmenstein_runtime>  (1218) 
5.6166441440582275

>  <fragmenstein_outcome>  (1218) 
too moved

>  <fragmenstein_mode>  (1218) 
expansion

>  <fragmenstein_error>  (1218) 


$$$$
C8185-P64
     RDKit          3D

 48 49  0  0  0  0  0  0  0  0999 V2000
    2.2536  -19.6046   27.0864 C   0  0  0  0  0  0  0  0  0  0  0  0
    3.4209  -18.7230   26.5767 C   0  0  0  0  0  0  0  0  0  0  0  0
    3.6567  -17.4455   27.3668 C   0  0  0  0  0  0  0  0  0  0  0  0
    2.8040  -17.2753   28.4463 N   0  0  0  0  0  0  0  0  0  0  0  0
    3.1577  -16.1524   28.9962 C   0  0  0  0  0  0  0  0  0  0  0  0
    4.1572  -15.5368   28.2961 N   0  0  0  0  0  0  0  0  0  0  0  0
    4.5487  -16.3163   27.2184 C   0  0  0  0  0  0  0  0  0  0  0  0
    5.6508  -15.9816   26.1948 C   0  0  0  0  0  0  0  0  0  0  0  0
    5.9487  -16.9194   25.5090 O   0  0  0  0  0  0  0  0  0  0  0  0
    6.2327  -14.5951   26.2557 N   0  0  0  0  0  0  0  0  0  0  0  0
    7.4416  -13.9868   25.5407 C   0  0  0  0  0  0  0  0  0  0  0  0
    7.5987  -12.4138   25.0602 C   0  0  0  0  0  0  0  0  0  0  0  0
    8.5584  -12.2715   23.8311 C   0  0  0  0  0  0  0  0  0  0  0  0
    8.0620  -11.4874   26.2048 C   0  0  0  0  0  0  0  0  0  0  0  0
    8.6788  -10.2319   25.7774 N   0  0  0  0  0  0  0  0  0  0  0  0
    8.1711   -9.1557   24.9314 C   0  0  0  0  0  0  0  0  0  0  0  0
    7.0908   -8.9943   24.4387 O   0  0  0  0  0  0  0  0  0  0  0  0
    9.2939   -8.0681   24.7694 C   0  0  0  0  0  0  0  0  0  0  0  0
    9.2582   -7.1632   26.0060 C   0  0  0  0  0  0  0  0  0  0  0  0
    9.3040   -7.2216   23.4852 C   0  0  0  0  0  0  0  0  0  0  0  0
   10.5197   -6.6704   22.9299 C   0  0  0  0  0  0  0  0  0  0  0  0
   10.3015   -5.8513   21.8469 C   0  0  0  0  0  0  0  0  0  0  0  0
    8.6474   -5.7630   21.4397 S   0  0  0  0  0  0  0  0  0  0  0  0
    8.2202   -6.7972   22.7344 C   0  0  0  0  0  0  0  0  0  0  0  0
    2.1357  -20.4760   26.4349 H   0  0  0  0  0  0  0  0  0  0  0  0
    1.3075  -19.0567   27.1037 H   0  0  0  0  0  0  0  0  0  0  0  0
    2.4567  -19.9629   28.1012 H   0  0  0  0  0  0  0  0  0  0  0  0
    4.3437  -19.3142   26.6077 H   0  0  0  0  0  0  0  0  0  0  0  0
    3.2418  -18.4634   25.5284 H   0  0  0  0  0  0  0  0  0  0  0  0
    2.7347  -15.7304   29.8978 H   0  0  0  0  0  0  0  0  0  0  0  0
    4.5707  -14.6593   28.5652 H   0  0  0  0  0  0  0  0  0  0  0  0
    5.7955  -14.0851   27.0047 H   0  0  0  0  0  0  0  0  0  0  0  0
    7.5647  -14.6160   24.6514 H   0  0  0  0  0  0  0  0  0  0  0  0
    8.2929  -14.2201   26.1912 H   0  0  0  0  0  0  0  0  0  0  0  0
    6.6246  -12.0407   24.7493 H   0  0  0  0  0  0  0  0  0  0  0  0
    8.4563  -11.2982   23.3451 H   0  0  0  0  0  0  0  0  0  0  0  0
    8.3340  -13.0307   23.0771 H   0  0  0  0  0  0  0  0  0  0  0  0
    9.6002  -12.4105   24.1387 H   0  0  0  0  0  0  0  0  0  0  0  0
    8.8064  -11.9928   26.8289 H   0  0  0  0  0  0  0  0  0  0  0  0
    7.2068  -11.2336   26.8402 H   0  0  0  0  0  0  0  0  0  0  0  0
    9.6679  -10.0846   25.9436 H   0  0  0  0  0  0  0  0  0  0  0  0
   10.2566   -8.5994   24.7656 H   0  0  0  0  0  0  0  0  0  0  0  0
    9.3308   -7.7464   26.9302 H   0  0  0  0  0  0  0  0  0  0  0  0
    8.3222   -6.5941   26.0484 H   0  0  0  0  0  0  0  0  0  0  0  0
   10.0854   -6.4451   25.9965 H   0  0  0  0  0  0  0  0  0  0  0  0
   11.5087   -6.8375   23.3410 H   0  0  0  0  0  0  0  0  0  0  0  0
   11.0444   -5.3028   21.2845 H   0  0  0  0  0  0  0  0  0  0  0  0
    7.1749   -7.0270   22.8969 H   0  0  0  0  0  0  0  0  0  0  0  0
  1  2  1  0
  2  3  1  0
  3  4  1  0
  4  5  2  0
  5  6  1  0
  6  7  1  0
  7  8  1  0
  8  9  2  0
  8 10  1  0
 10 11  1  0
 11 12  1  0
 12 13  1  0
 12 14  1  0
 14 15  1  0
 15 16  1  0
 16 17  2  0
 16 18  1  0
 18 19  1  0
 18 20  1  0
 20 21  1  0
 21 22  2  0
 22 23  1  0
 23 24  1  0
  7  3  2  0
 24 20  2  0
  1 25  1  0
  1 26  1  0
  1 27  1  0
  2 28  1  0
  2 29  1  0
  5 30  1  0
  6 31  1  0
 10 32  1  0
 11 33  1  0
 11 34  1  0
 12 35  1  0
 13 36  1  0
 13 37  1  0
 13 38  1  0
 14 39  1  0
 14 40  1  0
 15 41  1  0
 18 42  1  0
 19 43  1  0
 19 44  1  0
 19 45  1  0
 21 46  1  0
 22 47  1  0
 24 48  1  0
M  END
>  <Energy>  (1219) 
29.424360818585278

>  <compound_id>  (1219) 
8185

>  <target_id>  (1219) 
1

>  <reference_id>  (1219) 
64

>  <inspiration_ids>  (1219) 
[64, 120]

>  <energy_score>  (1219) 
-16.903720172247347

>  <distance_score>  (1219) 
16.08156226370384

>  <path>  (1219) 
/opt/xchem-fragalysis-2/maxwin/BulkDock/SCRATCH/511017/C8185-P64/C8185-P64.minimised.mol

>  <scratch_subdir>  (1219) 
/opt/xchem-fragalysis-2/maxwin/BulkDock/SCRATCH/511017/C8185-P64

>  <fragmenstein_runtime>  (1219) 
40.203184366226196

>  <fragmenstein_outcome>  (1219) 
too moved

>  <fragmenstein_mode>  (1219) 
expansion

>  <fragmenstein_error>  (1219) 


$$$$
C8185-P120
     RDKit          3D

 48 49  0  0  0  0  0  0  0  0999 V2000
   -6.2941   -9.9761   22.4459 C   0  0  0  0  0  0  0  0  0  0  0  0
   -4.8823   -9.3520   22.3955 C   0  0  0  0  0  0  0  0  0  0  0  0
   -4.0101   -9.6659   21.1824 C   0  0  0  0  0  0  0  0  0  0  0  0
   -4.4636  -10.6230   20.2795 N   0  0  0  0  0  0  0  0  0  0  0  0
   -3.4541  -10.8582   19.4898 C   0  0  0  0  0  0  0  0  0  0  0  0
   -2.3706  -10.1078   19.8277 N   0  0  0  0  0  0  0  0  0  0  0  0
   -2.7370   -9.1680   20.7734 C   0  0  0  0  0  0  0  0  0  0  0  0
   -1.9177   -7.9825   21.2126 C   0  0  0  0  0  0  0  0  0  0  0  0
   -2.3148   -7.4310   22.1994 O   0  0  0  0  0  0  0  0  0  0  0  0
   -0.8122   -7.6337   20.2987 N   0  0  0  0  0  0  0  0  0  0  0  0
    0.0842   -6.4426   20.2616 C   0  0  0  0  0  0  0  0  0  0  0  0
    1.4554   -6.5241   19.4624 C   0  0  0  0  0  0  0  0  0  0  0  0
    1.8204   -5.2264   18.6856 C   0  0  0  0  0  0  0  0  0  0  0  0
    2.6169   -6.9412   20.3891 C   0  0  0  0  0  0  0  0  0  0  0  0
    3.2174   -5.8403   21.1173 N   0  0  0  0  0  0  0  0  0  0  0  0
    4.4857   -5.1591   20.9351 C   0  0  0  0  0  0  0  0  0  0  0  0
    5.3943   -5.3852   20.1856 O   0  0  0  0  0  0  0  0  0  0  0  0
    4.5896   -3.9822   21.9432 C   0  0  0  0  0  0  0  0  0  0  0  0
    5.1099   -4.5239   23.2753 C   0  0  0  0  0  0  0  0  0  0  0  0
    5.3746   -2.7884   21.3982 C   0  0  0  0  0  0  0  0  0  0  0  0
    4.8811   -1.9305   20.3510 C   0  0  0  0  0  0  0  0  0  0  0  0
    5.6911   -0.8432   20.1108 C   0  0  0  0  0  0  0  0  0  0  0  0
    7.0366   -0.8245   21.1523 S   0  0  0  0  0  0  0  0  0  0  0  0
    6.5956   -2.3186   21.8537 C   0  0  0  0  0  0  0  0  0  0  0  0
   -6.7604   -9.7516   23.4107 H   0  0  0  0  0  0  0  0  0  0  0  0
   -6.9161   -9.5218   21.6658 H   0  0  0  0  0  0  0  0  0  0  0  0
   -6.3425  -11.0524   22.2874 H   0  0  0  0  0  0  0  0  0  0  0  0
   -4.3313   -9.6333   23.3007 H   0  0  0  0  0  0  0  0  0  0  0  0
   -5.0004   -8.2619   22.4391 H   0  0  0  0  0  0  0  0  0  0  0  0
   -3.4321  -11.5401   18.6562 H   0  0  0  0  0  0  0  0  0  0  0  0
   -1.4588  -10.1744   19.3885 H   0  0  0  0  0  0  0  0  0  0  0  0
   -0.7046   -8.3692   19.6123 H   0  0  0  0  0  0  0  0  0  0  0  0
    0.2539   -6.1339   21.2990 H   0  0  0  0  0  0  0  0  0  0  0  0
   -0.5347   -5.6618   19.8040 H   0  0  0  0  0  0  0  0  0  0  0  0
    1.3294   -7.3216   18.7179 H   0  0  0  0  0  0  0  0  0  0  0  0
    2.7850   -5.3326   18.1790 H   0  0  0  0  0  0  0  0  0  0  0  0
    1.0590   -5.0241   17.9251 H   0  0  0  0  0  0  0  0  0  0  0  0
    1.8610   -4.3596   19.3528 H   0  0  0  0  0  0  0  0  0  0  0  0
    2.2953   -7.6917   21.1178 H   0  0  0  0  0  0  0  0  0  0  0  0
    3.4155   -7.3749   19.7782 H   0  0  0  0  0  0  0  0  0  0  0  0
    2.7270   -5.4236   21.9002 H   0  0  0  0  0  0  0  0  0  0  0  0
    3.5754   -3.5958   22.1213 H   0  0  0  0  0  0  0  0  0  0  0  0
    5.1543   -3.7352   24.0341 H   0  0  0  0  0  0  0  0  0  0  0  0
    6.1138   -4.9504   23.1678 H   0  0  0  0  0  0  0  0  0  0  0  0
    4.4607   -5.3191   23.6579 H   0  0  0  0  0  0  0  0  0  0  0  0
    3.9523   -2.0960   19.8164 H   0  0  0  0  0  0  0  0  0  0  0  0
    5.5325   -0.0500   19.3931 H   0  0  0  0  0  0  0  0  0  0  0  0
    7.2253   -2.7435   22.6243 H   0  0  0  0  0  0  0  0  0  0  0  0
  1  2  1  0
  2  3  1  0
  3  4  1  0
  4  5  2  0
  5  6  1  0
  6  7  1  0
  7  8  1  0
  8  9  2  0
  8 10  1  0
 10 11  1  0
 11 12  1  0
 12 13  1  0
 12 14  1  0
 14 15  1  0
 15 16  1  0
 16 17  2  0
 16 18  1  0
 18 19  1  0
 18 20  1  0
 20 21  1  0
 21 22  2  0
 22 23  1  0
 23 24  1  0
  7  3  2  0
 24 20  2  0
  1 25  1  0
  1 26  1  0
  1 27  1  0
  2 28  1  0
  2 29  1  0
  5 30  1  0
  6 31  1  0
 10 32  1  0
 11 33  1  0
 11 34  1  0
 12 35  1  0
 13 36  1  0
 13 37  1  0
 13 38  1  0
 14 39  1  0
 14 40  1  0
 15 41  1  0
 18 42  1  0
 19 43  1  0
 19 44  1  0
 19 45  1  0
 21 46  1  0
 22 47  1  0
 24 48  1  0
M  END
>  <Energy>  (1220) 
14.951926227329762

>  <compound_id>  (1220) 
8185

>  <target_id>  (1220) 
1

>  <reference_id>  (1220) 
120

>  <inspiration_ids>  (1220) 
[64, 120]

>  <energy_score>  (1220) 
-31.376154763506577

>  <distance_score>  (1220) 
15.527734152876747

>  <path>  (1220) 
/opt/xchem-fragalysis-2/maxwin/BulkDock/SCRATCH/511017/C8185-P120/C8185-P120.minimised.mol

>  <scratch_subdir>  (1220) 
/opt/xchem-fragalysis-2/maxwin/BulkDock/SCRATCH/511017/C8185-P120

>  <fragmenstein_runtime>  (1220) 
25.403119564056396

>  <fragmenstein_outcome>  (1220) 
too moved

>  <fragmenstein_mode>  (1220) 
expansion

>  <fragmenstein_error>  (1220) 


$$$$
C8186-P64
     RDKit          3D

 35 36  0  0  0  0  0  0  0  0999 V2000
   15.3440   -2.4635   19.7840 O   0  0  0  0  0  0  0  0  0  0  0  0
   15.1572   -1.3726   19.2688 C   0  0  0  0  0  0  0  0  0  0  0  0
   14.4373   -0.4295   19.8992 O   0  0  0  0  0  0  0  0  0  0  0  0
   15.7223   -0.9346   17.9500 C   0  0  0  0  0  0  0  0  0  0  0  0
   14.6642   -0.4071   16.9869 C   0  0  0  0  0  0  0  0  0  0  0  0
   15.2887    0.0624   15.7618 N   0  0  0  0  0  0  0  0  0  0  0  0
   16.2176    1.2804   15.5064 C   0  0  0  0  0  0  0  0  0  0  0  0
   16.6839    2.0461   16.2546 O   0  0  0  0  0  0  0  0  0  0  0  0
   16.3920    1.4081   13.9906 C   0  0  0  0  0  0  0  0  0  0  0  0
   15.2209    2.0325   13.4056 N   0  0  0  0  0  0  0  0  0  0  0  0
   15.0128    3.3737   13.2721 C   0  0  0  0  0  0  0  0  0  0  0  0
   13.7778    3.6244   12.9070 N   0  0  0  0  0  0  0  0  0  0  0  0
   13.1565    2.3872   12.7857 C   0  0  0  0  0  0  0  0  0  0  0  0
   11.6898    2.2476   12.4785 C   0  0  0  0  0  0  0  0  0  0  0  0
   11.0447    1.6019   13.4849 F   0  0  0  0  0  0  0  0  0  0  0  0
   11.0616    3.4402   12.3069 F   0  0  0  0  0  0  0  0  0  0  0  0
   11.4893    1.5281   11.3437 F   0  0  0  0  0  0  0  0  0  0  0  0
   14.0869    1.3865   13.0054 C   0  0  0  0  0  0  0  0  0  0  0  0
   13.5935   -1.3895   16.5415 C   0  0  0  0  0  0  0  0  0  0  0  0
   13.5538   -2.7981   16.8227 C   0  0  0  0  0  0  0  0  0  0  0  0
   12.4449   -3.4211   16.2984 C   0  0  0  0  0  0  0  0  0  0  0  0
   11.4961   -2.3582   15.3674 S   0  0  0  0  0  0  0  0  0  0  0  0
   12.4912   -1.0333   15.7735 C   0  0  0  0  0  0  0  0  0  0  0  0
   14.1686   -0.8431   20.7525 H   0  0  0  0  0  0  0  0  0  0  0  0
   16.4815   -0.1705   18.1563 H   0  0  0  0  0  0  0  0  0  0  0  0
   16.2565   -1.7852   17.5077 H   0  0  0  0  0  0  0  0  0  0  0  0
   14.1728    0.4655   17.4355 H   0  0  0  0  0  0  0  0  0  0  0  0
   15.0044   -0.3384   14.8759 H   0  0  0  0  0  0  0  0  0  0  0  0
   17.2659    2.0301   13.7706 H   0  0  0  0  0  0  0  0  0  0  0  0
   16.5435    0.4296   13.5240 H   0  0  0  0  0  0  0  0  0  0  0  0
   15.7700    4.1170   13.4910 H   0  0  0  0  0  0  0  0  0  0  0  0
   13.9856    0.3097   12.9770 H   0  0  0  0  0  0  0  0  0  0  0  0
   14.2857   -3.3446   17.4063 H   0  0  0  0  0  0  0  0  0  0  0  0
   12.1612   -4.4594   16.4018 H   0  0  0  0  0  0  0  0  0  0  0  0
   12.2314   -0.0491   15.4041 H   0  0  0  0  0  0  0  0  0  0  0  0
  1  2  2  0
  2  3  1  0
  2  4  1  0
  4  5  1  0
  5  6  1  0
  6  7  1  0
  7  8  2  0
  7  9  1  0
  9 10  1  0
 10 11  1  0
 11 12  2  0
 12 13  1  0
 13 14  1  0
 14 15  1  0
 14 16  1  0
 14 17  1  0
 13 18  2  0
  5 19  1  0
 19 20  1  0
 20 21  2  0
 21 22  1  0
 22 23  1  0
 18 10  1  0
 23 19  2  0
  3 24  1  0
  4 25  1  0
  4 26  1  0
  5 27  1  0
  6 28  1  0
  9 29  1  0
  9 30  1  0
 11 31  1  0
 18 32  1  0
 20 33  1  0
 21 34  1  0
 23 35  1  0
M  END
>  <Energy>  (1221) 
51.687352640905722

>  <compound_id>  (1221) 
8186

>  <target_id>  (1221) 
1

>  <reference_id>  (1221) 
64

>  <inspiration_ids>  (1221) 
[64, 120]

>  <energy_score>  (1221) 
-42.864699315092594

>  <distance_score>  (1221) 
17.548295659899143

>  <path>  (1221) 
/opt/xchem-fragalysis-2/maxwin/BulkDock/SCRATCH/511017/C8186-P64/C8186-P64.minimised.mol

>  <scratch_subdir>  (1221) 
/opt/xchem-fragalysis-2/maxwin/BulkDock/SCRATCH/511017/C8186-P64

>  <fragmenstein_runtime>  (1221) 
12.797751188278198

>  <fragmenstein_outcome>  (1221) 
too moved

>  <fragmenstein_mode>  (1221) 
expansion

>  <fragmenstein_error>  (1221) 


$$$$
C8186-P120
     RDKit          3D

 35 36  0  0  0  0  0  0  0  0999 V2000
   15.2367   -2.0064   19.2983 O   0  0  0  0  0  0  0  0  0  0  0  0
   14.7951   -0.8744   19.2001 C   0  0  0  0  0  0  0  0  0  0  0  0
   14.1770   -0.2799   20.2400 O   0  0  0  0  0  0  0  0  0  0  0  0
   14.8646    0.0289   17.9981 C   0  0  0  0  0  0  0  0  0  0  0  0
   15.0764   -0.7766   16.7128 C   0  0  0  0  0  0  0  0  0  0  0  0
   15.5154    0.0273   15.5813 N   0  0  0  0  0  0  0  0  0  0  0  0
   16.3157    1.3623   15.5400 C   0  0  0  0  0  0  0  0  0  0  0  0
   16.8090    1.9767   16.4041 O   0  0  0  0  0  0  0  0  0  0  0  0
   16.4942    1.7770   14.0820 C   0  0  0  0  0  0  0  0  0  0  0  0
   15.2767    2.0948   13.3547 N   0  0  0  0  0  0  0  0  0  0  0  0
   15.2423    2.3561   12.0132 C   0  0  0  0  0  0  0  0  0  0  0  0
   14.0101    2.4302   11.5725 N   0  0  0  0  0  0  0  0  0  0  0  0
   13.1995    2.2633   12.6876 C   0  0  0  0  0  0  0  0  0  0  0  0
   11.6972    2.2829   12.5914 C   0  0  0  0  0  0  0  0  0  0  0  0
   11.2527    1.6316   11.4874 F   0  0  0  0  0  0  0  0  0  0  0  0
   11.1234    1.6937   13.6741 F   0  0  0  0  0  0  0  0  0  0  0  0
   11.2082    3.5507   12.5340 F   0  0  0  0  0  0  0  0  0  0  0  0
   13.9955    2.1282   13.8117 C   0  0  0  0  0  0  0  0  0  0  0  0
   13.8306   -1.5432   16.2929 C   0  0  0  0  0  0  0  0  0  0  0  0
   13.6024   -2.9163   16.6532 C   0  0  0  0  0  0  0  0  0  0  0  0
   12.4007   -3.4049   16.1970 C   0  0  0  0  0  0  0  0  0  0  0  0
   11.5523   -2.2496   15.2770 S   0  0  0  0  0  0  0  0  0  0  0  0
   12.7523   -1.0651   15.5642 C   0  0  0  0  0  0  0  0  0  0  0  0
   14.1111   -0.9558   20.9531 H   0  0  0  0  0  0  0  0  0  0  0  0
   13.9449    0.6215   17.9312 H   0  0  0  0  0  0  0  0  0  0  0  0
   15.6989    0.7105   18.1857 H   0  0  0  0  0  0  0  0  0  0  0  0
   15.8907   -1.4972   16.8625 H   0  0  0  0  0  0  0  0  0  0  0  0
   15.3007   -0.2696   14.6338 H   0  0  0  0  0  0  0  0  0  0  0  0
   17.1225    2.6744   14.0451 H   0  0  0  0  0  0  0  0  0  0  0  0
   17.0053    0.9714   13.5431 H   0  0  0  0  0  0  0  0  0  0  0  0
   16.1343    2.4447   11.4050 H   0  0  0  0  0  0  0  0  0  0  0  0
   13.7277    2.0272   14.8552 H   0  0  0  0  0  0  0  0  0  0  0  0
   14.2878   -3.5141   17.2437 H   0  0  0  0  0  0  0  0  0  0  0  0
   11.9875   -4.3930   16.3491 H   0  0  0  0  0  0  0  0  0  0  0  0
   12.5993   -0.0742   15.1641 H   0  0  0  0  0  0  0  0  0  0  0  0
  1  2  2  0
  2  3  1  0
  2  4  1  0
  4  5  1  0
  5  6  1  0
  6  7  1  0
  7  8  2  0
  7  9  1  0
  9 10  1  0
 10 11  1  0
 11 12  2  0
 12 13  1  0
 13 14  1  0
 14 15  1  0
 14 16  1  0
 14 17  1  0
 13 18  2  0
  5 19  1  0
 19 20  1  0
 20 21  2  0
 21 22  1  0
 22 23  1  0
 18 10  1  0
 23 19  2  0
  3 24  1  0
  4 25  1  0
  4 26  1  0
  5 27  1  0
  6 28  1  0
  9 29  1  0
  9 30  1  0
 11 31  1  0
 18 32  1  0
 20 33  1  0
 21 34  1  0
 23 35  1  0
M  END
>  <Energy>  (1222) 
53.076887261731315

>  <compound_id>  (1222) 
8186

>  <target_id>  (1222) 
1

>  <reference_id>  (1222) 
120

>  <inspiration_ids>  (1222) 
[64, 120]

>  <energy_score>  (1222) 
-41.47516469426853

>  <distance_score>  (1222) 
17.57273306299292

>  <path>  (1222) 
/opt/xchem-fragalysis-2/maxwin/BulkDock/SCRATCH/511017/C8186-P120/C8186-P120.minimised.mol

>  <scratch_subdir>  (1222) 
/opt/xchem-fragalysis-2/maxwin/BulkDock/SCRATCH/511017/C8186-P120

>  <fragmenstein_runtime>  (1222) 
8.726878643035889

>  <fragmenstein_outcome>  (1222) 
too moved

>  <fragmenstein_mode>  (1222) 
expansion

>  <fragmenstein_error>  (1222) 


$$$$
C8187-P64
     RDKit          3D

 46 47  0  0  0  0  0  0  0  0999 V2000
   -1.4957  -15.0083   28.5821 C   0  0  0  0  0  0  0  0  0  0  0  0
   -2.2602  -15.0142   27.2501 C   0  0  0  0  0  0  0  0  0  0  0  0
   -3.4184  -15.7446   27.4079 N   0  0  0  0  0  0  0  0  0  0  0  0
   -3.3773  -16.5988   26.3791 C   0  0  0  0  0  0  0  0  0  0  0  0
   -2.8493  -16.0162   25.2932 N   0  0  0  0  0  0  0  0  0  0  0  0
   -2.0586  -14.6927   25.6856 C   0  0  0  0  0  0  0  0  0  0  0  0
   -0.5309  -14.1887   24.5871 C   0  0  0  0  0  0  0  0  0  0  0  0
   -0.5840  -14.1985   23.3803 O   0  0  0  0  0  0  0  0  0  0  0  0
    0.9901  -13.5606   25.5835 N   0  0  0  0  0  0  0  0  0  0  0  0
    2.4966  -12.7902   25.0266 C   0  0  0  0  0  0  0  0  0  0  0  0
    3.6289  -11.7563   25.6998 C   0  0  0  0  0  0  0  0  0  0  0  0
    4.3522  -10.9257   24.6166 N   0  0  0  0  0  0  0  0  0  0  0  0
    5.0675   -9.6322   24.7035 C   0  0  0  0  0  0  0  0  0  0  0  0
    5.1934   -8.8687   25.6247 O   0  0  0  0  0  0  0  0  0  0  0  0
    5.8729   -9.2868   23.3652 C   0  0  0  0  0  0  0  0  0  0  0  0
    5.7942   -7.9245   22.9196 O   0  0  0  0  0  0  0  0  0  0  0  0
    6.8826   -7.3348   22.3492 C   0  0  0  0  0  0  0  0  0  0  0  0
    8.2451   -7.7515   22.2782 C   0  0  0  0  0  0  0  0  0  0  0  0
    9.0599   -6.7796   21.7300 C   0  0  0  0  0  0  0  0  0  0  0  0
    8.1803   -5.3986   21.2482 S   0  0  0  0  0  0  0  0  0  0  0  0
    6.7140   -6.0881   21.7784 C   0  0  0  0  0  0  0  0  0  0  0  0
    4.8078  -12.4544   26.4535 C   0  0  0  0  0  0  0  0  0  0  0  0
    6.2162  -11.7833   26.3898 C   0  0  0  0  0  0  0  0  0  0  0  0
    4.4056  -12.6524   27.9210 C   0  0  0  0  0  0  0  0  0  0  0  0
   -1.4040  -16.0416   28.9456 H   0  0  0  0  0  0  0  0  0  0  0  0
   -0.4781  -14.6166   28.5583 H   0  0  0  0  0  0  0  0  0  0  0  0
   -2.0729  -14.4710   29.3443 H   0  0  0  0  0  0  0  0  0  0  0  0
   -3.8233  -15.9895   28.3009 H   0  0  0  0  0  0  0  0  0  0  0  0
   -3.7679  -17.6007   26.5118 H   0  0  0  0  0  0  0  0  0  0  0  0
    0.8438  -13.7234   26.5577 H   0  0  0  0  0  0  0  0  0  0  0  0
    3.1550  -13.5448   24.5862 H   0  0  0  0  0  0  0  0  0  0  0  0
    2.1589  -12.2667   24.1355 H   0  0  0  0  0  0  0  0  0  0  0  0
    3.1327  -11.0494   26.3708 H   0  0  0  0  0  0  0  0  0  0  0  0
    4.3836  -11.2580   23.6635 H   0  0  0  0  0  0  0  0  0  0  0  0
    6.9028   -9.5812   23.5939 H   0  0  0  0  0  0  0  0  0  0  0  0
    5.5235   -9.9254   22.5538 H   0  0  0  0  0  0  0  0  0  0  0  0
    8.6449   -8.6802   22.6623 H   0  0  0  0  0  0  0  0  0  0  0  0
   10.1352   -6.8039   21.6205 H   0  0  0  0  0  0  0  0  0  0  0  0
    5.7895   -5.5326   21.6985 H   0  0  0  0  0  0  0  0  0  0  0  0
    4.9274  -13.4644   26.0462 H   0  0  0  0  0  0  0  0  0  0  0  0
    6.2123  -10.7985   26.8634 H   0  0  0  0  0  0  0  0  0  0  0  0
    6.9304  -12.3962   26.9532 H   0  0  0  0  0  0  0  0  0  0  0  0
    6.6086  -11.7226   25.3716 H   0  0  0  0  0  0  0  0  0  0  0  0
    4.2964  -11.6908   28.4338 H   0  0  0  0  0  0  0  0  0  0  0  0
    3.4539  -13.1896   27.9952 H   0  0  0  0  0  0  0  0  0  0  0  0
    5.1605  -13.2377   28.4566 H   0  0  0  0  0  0  0  0  0  0  0  0
  1  2  1  0
  2  3  1  0
  3  4  1  0
  4  5  2  0
  5  6  1  0
  6  7  1  0
  7  8  2  0
  7  9  1  0
  9 10  1  0
 10 11  1  0
 11 12  1  0
 12 13  1  0
 13 14  2  0
 13 15  1  0
 15 16  1  0
 16 17  1  0
 17 18  1  0
 18 19  2  0
 19 20  1  0
 20 21  1  0
 11 22  1  0
 22 23  1  0
 22 24  1  0
  6  2  2  0
 21 17  2  0
  1 25  1  0
  1 26  1  0
  1 27  1  0
  3 28  1  0
  4 29  1  0
  9 30  1  0
 10 31  1  0
 10 32  1  0
 11 33  1  0
 12 34  1  0
 15 35  1  0
 15 36  1  0
 18 37  1  0
 19 38  1  0
 21 39  1  0
 22 40  1  0
 23 41  1  0
 23 42  1  0
 23 43  1  0
 24 44  1  0
 24 45  1  0
 24 46  1  0
M  END
>  <Energy>  (1223) 
342.76879381984764

>  <compound_id>  (1223) 
8187

>  <target_id>  (1223) 
1

>  <reference_id>  (1223) 
64

>  <inspiration_ids>  (1223) 
[64, 120]

>  <energy_score>  (1223) 
239.45204428605052

>  <distance_score>  (1223) 
15.517287935861544

>  <path>  (1223) 
/opt/xchem-fragalysis-2/maxwin/BulkDock/SCRATCH/511017/C8187-P64/C8187-P64.minimised.mol

>  <scratch_subdir>  (1223) 
/opt/xchem-fragalysis-2/maxwin/BulkDock/SCRATCH/511017/C8187-P64

>  <fragmenstein_runtime>  (1223) 
25.489547967910767

>  <fragmenstein_outcome>  (1223) 
too moved

>  <fragmenstein_mode>  (1223) 
expansion

>  <fragmenstein_error>  (1223) 


$$$$
C8187-P120
     RDKit          3D

 46 47  0  0  0  0  0  0  0  0999 V2000
    4.6675  -11.9055   28.3720 C   0  0  0  0  0  0  0  0  0  0  0  0
    4.3556  -11.8185   26.9242 C   0  0  0  0  0  0  0  0  0  0  0  0
    3.3140  -12.5156   26.3562 N   0  0  0  0  0  0  0  0  0  0  0  0
    3.3291  -12.2307   25.0301 C   0  0  0  0  0  0  0  0  0  0  0  0
    4.2815  -11.3697   24.7226 N   0  0  0  0  0  0  0  0  0  0  0  0
    4.9768  -11.0989   25.8886 C   0  0  0  0  0  0  0  0  0  0  0  0
    6.1996  -10.1877   25.9988 C   0  0  0  0  0  0  0  0  0  0  0  0
    6.7139  -10.1674   27.0800 O   0  0  0  0  0  0  0  0  0  0  0  0
    6.5525   -9.4900   24.7667 N   0  0  0  0  0  0  0  0  0  0  0  0
    7.5985   -8.4630   24.4932 C   0  0  0  0  0  0  0  0  0  0  0  0
    7.9892   -7.9996   23.0278 C   0  0  0  0  0  0  0  0  0  0  0  0
    9.4283   -7.6549   22.8916 N   0  0  0  0  0  0  0  0  0  0  0  0
   10.2032   -6.5652   23.4557 C   0  0  0  0  0  0  0  0  0  0  0  0
    9.8956   -5.7115   24.2394 O   0  0  0  0  0  0  0  0  0  0  0  0
   11.6431   -6.5102   22.8253 C   0  0  0  0  0  0  0  0  0  0  0  0
   11.7795   -5.4589   21.8607 O   0  0  0  0  0  0  0  0  0  0  0  0
   13.0296   -5.2955   21.3401 C   0  0  0  0  0  0  0  0  0  0  0  0
   14.2085   -6.0723   21.5391 C   0  0  0  0  0  0  0  0  0  0  0  0
   15.2660   -5.6302   20.7670 C   0  0  0  0  0  0  0  0  0  0  0  0
   14.8554   -4.2633   19.8279 S   0  0  0  0  0  0  0  0  0  0  0  0
   13.2778   -4.2557   20.4739 C   0  0  0  0  0  0  0  0  0  0  0  0
    7.1383   -6.8415   22.3719 C   0  0  0  0  0  0  0  0  0  0  0  0
    7.8355   -6.1088   21.2051 C   0  0  0  0  0  0  0  0  0  0  0  0
    6.6013   -5.8081   23.3652 C   0  0  0  0  0  0  0  0  0  0  0  0
    4.6484  -10.9111   28.8289 H   0  0  0  0  0  0  0  0  0  0  0  0
    3.9415  -12.5309   28.9018 H   0  0  0  0  0  0  0  0  0  0  0  0
    5.6601  -12.3410   28.5241 H   0  0  0  0  0  0  0  0  0  0  0  0
    2.6595  -13.1245   26.8289 H   0  0  0  0  0  0  0  0  0  0  0  0
    2.6172  -12.6285   24.3237 H   0  0  0  0  0  0  0  0  0  0  0  0
    5.8424   -9.6806   24.0623 H   0  0  0  0  0  0  0  0  0  0  0  0
    7.3673   -7.6033   25.1297 H   0  0  0  0  0  0  0  0  0  0  0  0
    8.4999   -8.8973   24.9466 H   0  0  0  0  0  0  0  0  0  0  0  0
    7.8776   -8.8809   22.3823 H   0  0  0  0  0  0  0  0  0  0  0  0
    9.9878   -8.1332   22.1960 H   0  0  0  0  0  0  0  0  0  0  0  0
   11.8804   -7.4745   22.3613 H   0  0  0  0  0  0  0  0  0  0  0  0
   12.3361   -6.3491   23.6614 H   0  0  0  0  0  0  0  0  0  0  0  0
   14.2972   -6.9324   22.1892 H   0  0  0  0  0  0  0  0  0  0  0  0
   16.2624   -6.0473   20.7099 H   0  0  0  0  0  0  0  0  0  0  0  0
   12.6011   -3.4812   20.1736 H   0  0  0  0  0  0  0  0  0  0  0  0
    6.2519   -7.3362   21.9496 H   0  0  0  0  0  0  0  0  0  0  0  0
    7.0933   -5.5355   20.6397 H   0  0  0  0  0  0  0  0  0  0  0  0
    8.5987   -5.4057   21.5508 H   0  0  0  0  0  0  0  0  0  0  0  0
    8.2989   -6.8341   20.5364 H   0  0  0  0  0  0  0  0  0  0  0  0
    6.0381   -5.0266   22.8426 H   0  0  0  0  0  0  0  0  0  0  0  0
    5.9115   -6.2680   24.0797 H   0  0  0  0  0  0  0  0  0  0  0  0
    7.4043   -5.3209   23.9229 H   0  0  0  0  0  0  0  0  0  0  0  0
  1  2  1  0
  2  3  1  0
  3  4  1  0
  4  5  2  0
  5  6  1  0
  6  7  1  0
  7  8  2  0
  7  9  1  0
  9 10  1  0
 10 11  1  0
 11 12  1  0
 12 13  1  0
 13 14  2  0
 13 15  1  0
 15 16  1  0
 16 17  1  0
 17 18  1  0
 18 19  2  0
 19 20  1  0
 20 21  1  0
 11 22  1  0
 22 23  1  0
 22 24  1  0
  6  2  2  0
 21 17  2  0
  1 25  1  0
  1 26  1  0
  1 27  1  0
  3 28  1  0
  4 29  1  0
  9 30  1  0
 10 31  1  0
 10 32  1  0
 11 33  1  0
 12 34  1  0
 15 35  1  0
 15 36  1  0
 18 37  1  0
 19 38  1  0
 21 39  1  0
 22 40  1  0
 23 41  1  0
 23 42  1  0
 23 43  1  0
 24 44  1  0
 24 45  1  0
 24 46  1  0
M  END
>  <Energy>  (1224) 
74.676041555733704

>  <compound_id>  (1224) 
8187

>  <target_id>  (1224) 
1

>  <reference_id>  (1224) 
120

>  <inspiration_ids>  (1224) 
[64, 120]

>  <energy_score>  (1224) 
-28.640707978063176

>  <distance_score>  (1224) 
15.621140168080196

>  <path>  (1224) 
/opt/xchem-fragalysis-2/maxwin/BulkDock/SCRATCH/511017/C8187-P120/C8187-P120.minimised.mol

>  <scratch_subdir>  (1224) 
/opt/xchem-fragalysis-2/maxwin/BulkDock/SCRATCH/511017/C8187-P120

>  <fragmenstein_runtime>  (1224) 
23.36247992515564

>  <fragmenstein_outcome>  (1224) 
too moved

>  <fragmenstein_mode>  (1224) 
expansion

>  <fragmenstein_error>  (1224) 


$$$$
C8188-P64
     RDKit          3D

 36 37  0  0  0  0  0  0  0  0999 V2000
    1.8365   -3.4877   22.2396 O   0  0  0  0  0  0  0  0  0  0  0  0
    2.2235   -4.5736   21.8138 C   0  0  0  0  0  0  0  0  0  0  0  0
    3.7157   -4.9246   21.7040 C   0  0  0  0  0  0  0  0  0  0  0  0
    4.7170   -3.7556   21.5458 C   0  0  0  0  0  0  0  0  0  0  0  0
    6.1709   -4.2057   21.5600 C   0  0  0  0  0  0  0  0  0  0  0  0
    6.6878   -5.4189   20.9819 C   0  0  0  0  0  0  0  0  0  0  0  0
    8.0188   -5.6289   21.2677 C   0  0  0  0  0  0  0  0  0  0  0  0
    8.6838   -4.3421   22.1561 S   0  0  0  0  0  0  0  0  0  0  0  0
    7.1960   -3.4998   22.1656 C   0  0  0  0  0  0  0  0  0  0  0  0
    1.3220   -5.5422   21.3193 N   0  0  0  0  0  0  0  0  0  0  0  0
    1.0138   -5.4796   19.8806 C   0  0  0  0  0  0  0  0  0  0  0  0
    1.6440   -4.2820   19.0550 C   0  0  0  0  0  0  0  0  0  0  0  0
    3.0503   -4.3880   18.8161 O   0  0  0  0  0  0  0  0  0  0  0  0
    0.7435   -6.5598   22.2785 C   0  0  0  0  0  0  0  0  0  0  0  0
   -0.4990   -7.4617   22.0229 C   0  0  0  0  0  0  0  0  0  0  0  0
   -1.6087   -7.4643   22.7654 N   0  0  0  0  0  0  0  0  0  0  0  0
   -2.3987   -8.5052   22.3409 C   0  0  0  0  0  0  0  0  0  0  0  0
   -1.7461   -9.2191   21.3752 C   0  0  0  0  0  0  0  0  0  0  0  0
   -0.5346   -8.5794   21.2031 N   0  0  0  0  0  0  0  0  0  0  0  0
    3.8440   -5.5465   20.8237 H   0  0  0  0  0  0  0  0  0  0  0  0
    3.9711   -5.5175   22.5902 H   0  0  0  0  0  0  0  0  0  0  0  0
    4.5229   -3.2121   20.6148 H   0  0  0  0  0  0  0  0  0  0  0  0
    4.5542   -3.0404   22.3620 H   0  0  0  0  0  0  0  0  0  0  0  0
    6.0931   -6.1421   20.4355 H   0  0  0  0  0  0  0  0  0  0  0  0
    8.6302   -6.4822   21.0080 H   0  0  0  0  0  0  0  0  0  0  0  0
    7.1266   -2.5499   22.6786 H   0  0  0  0  0  0  0  0  0  0  0  0
   -0.0765   -5.4063   19.8046 H   0  0  0  0  0  0  0  0  0  0  0  0
    1.3304   -6.4250   19.4354 H   0  0  0  0  0  0  0  0  0  0  0  0
    1.4419   -3.3252   19.5465 H   0  0  0  0  0  0  0  0  0  0  0  0
    1.1561   -4.2669   18.0742 H   0  0  0  0  0  0  0  0  0  0  0  0
    3.2759   -3.6618   18.2085 H   0  0  0  0  0  0  0  0  0  0  0  0
    0.5233   -5.9902   23.1923 H   0  0  0  0  0  0  0  0  0  0  0  0
    1.5635   -7.2233   22.5676 H   0  0  0  0  0  0  0  0  0  0  0  0
   -3.3841   -8.6680   22.7570 H   0  0  0  0  0  0  0  0  0  0  0  0
   -2.0003  -10.0910   20.7894 H   0  0  0  0  0  0  0  0  0  0  0  0
    0.1947   -8.8974   20.5712 H   0  0  0  0  0  0  0  0  0  0  0  0
  1  2  2  0
  2  3  1  0
  3  4  1  0
  4  5  1  0
  5  6  1  0
  6  7  2  0
  7  8  1  0
  8  9  1  0
  2 10  1  0
 10 11  1  0
 11 12  1  0
 12 13  1  0
 10 14  1  0
 14 15  1  0
 15 16  2  0
 16 17  1  0
 17 18  2  0
 18 19  1  0
  9  5  2  0
 19 15  1  0
  3 20  1  0
  3 21  1  0
  4 22  1  0
  4 23  1  0
  6 24  1  0
  7 25  1  0
  9 26  1  0
 11 27  1  0
 11 28  1  0
 12 29  1  0
 12 30  1  0
 13 31  1  0
 14 32  1  0
 14 33  1  0
 17 34  1  0
 18 35  1  0
 19 36  1  0
M  END
>  <Energy>  (1225) 
49.398506028690768

>  <compound_id>  (1225) 
8188

>  <target_id>  (1225) 
1

>  <reference_id>  (1225) 
64

>  <inspiration_ids>  (1225) 
[64, 120]

>  <energy_score>  (1225) 
10.867941173798727

>  <distance_score>  (1225) 
15.778697451018715

>  <path>  (1225) 
/opt/xchem-fragalysis-2/maxwin/BulkDock/SCRATCH/511017/C8188-P64/C8188-P64.minimised.mol

>  <scratch_subdir>  (1225) 
/opt/xchem-fragalysis-2/maxwin/BulkDock/SCRATCH/511017/C8188-P64

>  <fragmenstein_runtime>  (1225) 
17.52565836906433

>  <fragmenstein_outcome>  (1225) 
too moved

>  <fragmenstein_mode>  (1225) 
expansion

>  <fragmenstein_error>  (1225) 


$$$$
C8188-P120
     RDKit          3D

 36 37  0  0  0  0  0  0  0  0999 V2000
    3.6214   -5.2446   21.0749 O   0  0  0  0  0  0  0  0  0  0  0  0
    2.5409   -4.6789   20.9291 C   0  0  0  0  0  0  0  0  0  0  0  0
    2.4847   -3.1532   20.9995 C   0  0  0  0  0  0  0  0  0  0  0  0
    3.6092   -2.4450   20.1770 C   0  0  0  0  0  0  0  0  0  0  0  0
    4.9544   -2.1885   20.8227 C   0  0  0  0  0  0  0  0  0  0  0  0
    5.6601   -0.9363   20.7106 C   0  0  0  0  0  0  0  0  0  0  0  0
    6.8664   -0.9350   21.3731 C   0  0  0  0  0  0  0  0  0  0  0  0
    7.1926   -2.4410   22.1008 S   0  0  0  0  0  0  0  0  0  0  0  0
    5.7271   -3.0965   21.5212 C   0  0  0  0  0  0  0  0  0  0  0  0
    1.3885   -5.4096   20.5970 N   0  0  0  0  0  0  0  0  0  0  0  0
    1.0834   -5.5995   19.1700 C   0  0  0  0  0  0  0  0  0  0  0  0
    1.9401   -4.7704   18.1382 C   0  0  0  0  0  0  0  0  0  0  0  0
    3.3341   -5.0706   18.0992 O   0  0  0  0  0  0  0  0  0  0  0  0
    0.5284   -5.9591   21.7090 C   0  0  0  0  0  0  0  0  0  0  0  0
   -0.4921   -7.1445   21.6190 C   0  0  0  0  0  0  0  0  0  0  0  0
   -1.6514   -7.1674   22.2857 N   0  0  0  0  0  0  0  0  0  0  0  0
   -2.2267   -8.4020   22.1075 C   0  0  0  0  0  0  0  0  0  0  0  0
   -1.4030   -9.1851   21.3530 C   0  0  0  0  0  0  0  0  0  0  0  0
   -0.3021   -8.3981   21.0643 N   0  0  0  0  0  0  0  0  0  0  0  0
    1.5109   -2.8358   20.6085 H   0  0  0  0  0  0  0  0  0  0  0  0
    2.5308   -2.8586   22.0534 H   0  0  0  0  0  0  0  0  0  0  0  0
    3.7914   -2.9739   19.2424 H   0  0  0  0  0  0  0  0  0  0  0  0
    3.2015   -1.4660   19.8883 H   0  0  0  0  0  0  0  0  0  0  0  0
    5.2740   -0.0687   20.1885 H   0  0  0  0  0  0  0  0  0  0  0  0
    7.5566   -0.1138   21.4887 H   0  0  0  0  0  0  0  0  0  0  0  0
    5.5106   -4.1297   21.7488 H   0  0  0  0  0  0  0  0  0  0  0  0
    0.0284   -5.3385   19.0334 H   0  0  0  0  0  0  0  0  0  0  0  0
    1.2066   -6.6647   18.9560 H   0  0  0  0  0  0  0  0  0  0  0  0
    1.5480   -4.9720   17.1356 H   0  0  0  0  0  0  0  0  0  0  0  0
    1.8142   -3.6992   18.3153 H   0  0  0  0  0  0  0  0  0  0  0  0
    3.5874   -5.5215   18.9287 H   0  0  0  0  0  0  0  0  0  0  0  0
    1.2049   -6.1900   22.5424 H   0  0  0  0  0  0  0  0  0  0  0  0
   -0.0587   -5.0910   22.0388 H   0  0  0  0  0  0  0  0  0  0  0  0
   -3.1979   -8.6339   22.5228 H   0  0  0  0  0  0  0  0  0  0  0  0
   -1.4761  -10.1921   20.9701 H   0  0  0  0  0  0  0  0  0  0  0  0
    0.4880   -8.7118   20.5117 H   0  0  0  0  0  0  0  0  0  0  0  0
  1  2  2  0
  2  3  1  0
  3  4  1  0
  4  5  1  0
  5  6  1  0
  6  7  2  0
  7  8  1  0
  8  9  1  0
  2 10  1  0
 10 11  1  0
 11 12  1  0
 12 13  1  0
 10 14  1  0
 14 15  1  0
 15 16  2  0
 16 17  1  0
 17 18  2  0
 18 19  1  0
  9  5  2  0
 19 15  1  0
  3 20  1  0
  3 21  1  0
  4 22  1  0
  4 23  1  0
  6 24  1  0
  7 25  1  0
  9 26  1  0
 11 27  1  0
 11 28  1  0
 12 29  1  0
 12 30  1  0
 13 31  1  0
 14 32  1  0
 14 33  1  0
 17 34  1  0
 18 35  1  0
 19 36  1  0
M  END
>  <Energy>  (1226) 
52.643653771986315

>  <compound_id>  (1226) 
8188

>  <target_id>  (1226) 
1

>  <reference_id>  (1226) 
120

>  <inspiration_ids>  (1226) 
[64, 120]

>  <energy_score>  (1226) 
14.113088917090408

>  <distance_score>  (1226) 
15.869500800768378

>  <path>  (1226) 
/opt/xchem-fragalysis-2/maxwin/BulkDock/SCRATCH/511017/C8188-P120/C8188-P120.minimised.mol

>  <scratch_subdir>  (1226) 
/opt/xchem-fragalysis-2/maxwin/BulkDock/SCRATCH/511017/C8188-P120

>  <fragmenstein_runtime>  (1226) 
12.514173030853271

>  <fragmenstein_outcome>  (1226) 
too moved

>  <fragmenstein_mode>  (1226) 
expansion

>  <fragmenstein_error>  (1226) 


$$$$
C8190-P64
     RDKit          3D

 30 32  0  0  0  0  0  0  0  0999 V2000
    7.0368  -12.0752   20.1048 O   0  0  0  0  0  0  0  0  0  0  0  0
    6.8326  -10.9151   19.7887 C   0  0  0  0  0  0  0  0  0  0  0  0
    8.3233  -10.0027   19.2920 O   0  0  0  0  0  0  0  0  0  0  0  0
    9.6139   -8.5481   19.7297 C   0  0  0  0  0  0  0  0  0  0  0  0
   11.0902   -8.4225   21.0137 C   0  0  0  0  0  0  0  0  0  0  0  0
   12.1167   -9.3842   21.4980 C   0  0  0  0  0  0  0  0  0  0  0  0
   13.0513   -8.8726   22.3735 C   0  0  0  0  0  0  0  0  0  0  0  0
   12.8716   -7.2083   22.5979 S   0  0  0  0  0  0  0  0  0  0  0  0
   11.5661   -7.1700   21.5119 C   0  0  0  0  0  0  0  0  0  0  0  0
    5.1720  -10.5294   20.0758 C   0  0  0  0  0  0  0  0  0  0  0  0
    4.8325   -8.5340   19.2426 C   0  0  0  0  0  0  0  0  0  0  0  0
    3.7117   -6.6740   19.4724 N   0  0  0  0  0  0  0  0  0  0  0  0
    2.1314   -6.9145   20.7618 C   0  0  0  0  0  0  0  0  0  0  0  0
    2.4039   -8.9650   21.6514 C   0  0  0  0  0  0  0  0  0  0  0  0
    0.6343   -9.0948   21.7400 N   0  0  0  0  0  0  0  0  0  0  0  0
   -0.1462   -8.1288   22.4056 C   0  0  0  0  0  0  0  0  0  0  0  0
   -1.3986   -8.6584   22.6635 C   0  0  0  0  0  0  0  0  0  0  0  0
   -1.4702   -9.9426   22.2688 N   0  0  0  0  0  0  0  0  0  0  0  0
   -0.2648  -10.1722   21.8046 C   0  0  0  0  0  0  0  0  0  0  0  0
    3.8028  -10.6736   21.6864 N   0  0  0  0  0  0  0  0  0  0  0  0
    9.2104   -7.6337   19.7536 H   0  0  0  0  0  0  0  0  0  0  0  0
    9.4709   -8.5742   20.7449 H   0  0  0  0  0  0  0  0  0  0  0  0
   12.2670  -10.3940   21.1293 H   0  0  0  0  0  0  0  0  0  0  0  0
   13.8727   -9.4028   22.8372 H   0  0  0  0  0  0  0  0  0  0  0  0
   11.2421   -6.1726   21.2388 H   0  0  0  0  0  0  0  0  0  0  0  0
    5.3315   -8.0309   18.4189 H   0  0  0  0  0  0  0  0  0  0  0  0
    1.3847   -6.1459   20.7720 H   0  0  0  0  0  0  0  0  0  0  0  0
    0.2650   -7.1826   22.7072 H   0  0  0  0  0  0  0  0  0  0  0  0
   -2.2308   -8.1662   23.1503 H   0  0  0  0  0  0  0  0  0  0  0  0
    0.0772  -11.1308   21.6019 H   0  0  0  0  0  0  0  0  0  0  0  0
  1  2  2  0
  2  3  1  0
  3  4  1  0
  4  5  1  0
  5  6  1  0
  6  7  2  0
  7  8  1  0
  8  9  1  0
  2 10  1  0
 10 11  2  0
 11 12  1  0
 12 13  2  0
 13 14  1  0
 14 15  1  0
 15 16  1  0
 16 17  2  0
 17 18  1  0
 18 19  2  0
 14 20  2  0
  9  5  2  0
 20 10  1  0
 19 15  1  0
  4 21  1  0
  4 22  1  0
  6 23  1  0
  7 24  1  0
  9 25  1  0
 11 26  1  0
 13 27  1  0
 16 28  1  0
 17 29  1  0
 19 30  1  0
M  END
>  <Energy>  (1227) 
2140.5558395091234

>  <compound_id>  (1227) 
8190

>  <target_id>  (1227) 
1

>  <reference_id>  (1227) 
64

>  <inspiration_ids>  (1227) 
[64, 120]

>  <energy_score>  (1227) 
1970.8193823048514

>  <distance_score>  (1227) 
15.569572455154505

>  <path>  (1227) 
/opt/xchem-fragalysis-2/maxwin/BulkDock/SCRATCH/511017/C8190-P64/C8190-P64.minimised.mol

>  <scratch_subdir>  (1227) 
/opt/xchem-fragalysis-2/maxwin/BulkDock/SCRATCH/511017/C8190-P64

>  <fragmenstein_runtime>  (1227) 
8.9005286693573

>  <fragmenstein_outcome>  (1227) 
too moved

>  <fragmenstein_mode>  (1227) 
expansion

>  <fragmenstein_error>  (1227) 


$$$$
C8190-P120
     RDKit          3D

 30 32  0  0  0  0  0  0  0  0999 V2000
    2.4383   -2.8315   25.7861 O   0  0  0  0  0  0  0  0  0  0  0  0
    2.0501   -2.7437   24.6328 C   0  0  0  0  0  0  0  0  0  0  0  0
    2.6788   -2.0198   23.6457 O   0  0  0  0  0  0  0  0  0  0  0  0
    3.8859   -1.2947   24.0100 C   0  0  0  0  0  0  0  0  0  0  0  0
    4.8428   -1.0735   22.8318 C   0  0  0  0  0  0  0  0  0  0  0  0
    4.4712   -0.6274   21.5173 C   0  0  0  0  0  0  0  0  0  0  0  0
    5.5319   -0.5523   20.6383 C   0  0  0  0  0  0  0  0  0  0  0  0
    7.0010   -0.9531   21.3950 S   0  0  0  0  0  0  0  0  0  0  0  0
    6.2190   -1.2488   22.8848 C   0  0  0  0  0  0  0  0  0  0  0  0
    0.8263   -3.4535   24.0905 C   0  0  0  0  0  0  0  0  0  0  0  0
    0.2259   -2.8919   22.9773 C   0  0  0  0  0  0  0  0  0  0  0  0
   -0.9365   -3.3713   22.5018 N   0  0  0  0  0  0  0  0  0  0  0  0
   -1.4493   -4.4636   23.1568 C   0  0  0  0  0  0  0  0  0  0  0  0
   -0.8274   -5.1528   24.2020 C   0  0  0  0  0  0  0  0  0  0  0  0
   -1.3847   -6.4463   24.6677 N   0  0  0  0  0  0  0  0  0  0  0  0
   -0.9070   -7.2454   25.6994 C   0  0  0  0  0  0  0  0  0  0  0  0
   -1.7158   -8.3633   25.7647 C   0  0  0  0  0  0  0  0  0  0  0  0
   -2.6809   -8.3143   24.8020 N   0  0  0  0  0  0  0  0  0  0  0  0
   -2.4668   -7.1753   24.1674 C   0  0  0  0  0  0  0  0  0  0  0  0
    0.3290   -4.6099   24.7213 N   0  0  0  0  0  0  0  0  0  0  0  0
    3.5767   -0.3140   24.3887 H   0  0  0  0  0  0  0  0  0  0  0  0
    4.4197   -1.8243   24.8078 H   0  0  0  0  0  0  0  0  0  0  0  0
    3.4529   -0.3974   21.2259 H   0  0  0  0  0  0  0  0  0  0  0  0
    5.5007   -0.2716   19.5944 H   0  0  0  0  0  0  0  0  0  0  0  0
    6.8069   -1.5601   23.7389 H   0  0  0  0  0  0  0  0  0  0  0  0
    0.6102   -2.0190   22.4636 H   0  0  0  0  0  0  0  0  0  0  0  0
   -2.4105   -4.7745   22.7559 H   0  0  0  0  0  0  0  0  0  0  0  0
   -0.0542   -6.9320   26.2857 H   0  0  0  0  0  0  0  0  0  0  0  0
   -1.6480   -9.1928   26.4570 H   0  0  0  0  0  0  0  0  0  0  0  0
   -3.0573   -6.8303   23.3301 H   0  0  0  0  0  0  0  0  0  0  0  0
  1  2  2  0
  2  3  1  0
  3  4  1  0
  4  5  1  0
  5  6  1  0
  6  7  2  0
  7  8  1  0
  8  9  1  0
  2 10  1  0
 10 11  2  0
 11 12  1  0
 12 13  2  0
 13 14  1  0
 14 15  1  0
 15 16  1  0
 16 17  2  0
 17 18  1  0
 18 19  2  0
 14 20  2  0
  9  5  2  0
 20 10  1  0
 19 15  1  0
  4 21  1  0
  4 22  1  0
  6 23  1  0
  7 24  1  0
  9 25  1  0
 11 26  1  0
 13 27  1  0
 16 28  1  0
 17 29  1  0
 19 30  1  0
M  END
>  <Energy>  (1228) 
126.17816247335736

>  <compound_id>  (1228) 
8190

>  <target_id>  (1228) 
1

>  <reference_id>  (1228) 
120

>  <inspiration_ids>  (1228) 
[64, 120]

>  <energy_score>  (1228) 
-43.558294730928765

>  <distance_score>  (1228) 
16.551276212019783

>  <path>  (1228) 
/opt/xchem-fragalysis-2/maxwin/BulkDock/SCRATCH/511017/C8190-P120/C8190-P120.minimised.mol

>  <scratch_subdir>  (1228) 
/opt/xchem-fragalysis-2/maxwin/BulkDock/SCRATCH/511017/C8190-P120

>  <fragmenstein_runtime>  (1228) 
8.37092924118042

>  <fragmenstein_outcome>  (1228) 
too moved

>  <fragmenstein_mode>  (1228) 
expansion

>  <fragmenstein_error>  (1228) 


$$$$
C8191-P64
     RDKit          3D

 31 33  0  0  0  0  0  0  0  0999 V2000
    2.6328   -2.6711   16.7934 O   0  0  0  0  0  0  0  0  0  0  0  0
    3.5760   -2.7233   17.5359 C   0  0  0  0  0  0  0  0  0  0  0  0
    4.3619   -1.6551   18.1501 N   0  0  0  0  0  0  0  0  0  0  0  0
    4.1883   -0.2236   18.1300 C   0  0  0  0  0  0  0  0  0  0  0  0
    5.4896    0.5048   17.9689 C   0  0  0  0  0  0  0  0  0  0  0  0
    5.7589    1.8001   18.5224 C   0  0  0  0  0  0  0  0  0  0  0  0
    6.9206    2.3626   18.0416 C   0  0  0  0  0  0  0  0  0  0  0  0
    7.7949    1.2853   17.0572 S   0  0  0  0  0  0  0  0  0  0  0  0
    6.5417    0.1271   17.1670 C   0  0  0  0  0  0  0  0  0  0  0  0
    4.0701   -4.2728   17.7605 C   0  0  0  0  0  0  0  0  0  0  0  0
    4.5270   -4.7328   16.6315 C   0  0  0  0  0  0  0  0  0  0  0  0
    5.4181   -5.8930   16.5700 N   0  0  0  0  0  0  0  0  0  0  0  0
    5.5786   -6.7757   17.5055 C   0  0  0  0  0  0  0  0  0  0  0  0
    4.5638   -6.8984   18.2745 C   0  0  0  0  0  0  0  0  0  0  0  0
    3.0729   -8.0513   17.9446 N   0  0  0  0  0  0  0  0  0  0  0  0
    2.0024   -8.7184   18.6333 C   0  0  0  0  0  0  0  0  0  0  0  0
    0.7981   -8.6437   17.9824 C   0  0  0  0  0  0  0  0  0  0  0  0
    1.0521   -8.3215   16.7510 N   0  0  0  0  0  0  0  0  0  0  0  0
    2.3603   -8.2748   16.7510 C   0  0  0  0  0  0  0  0  0  0  0  0
    4.6154   -5.3068   18.7295 N   0  0  0  0  0  0  0  0  0  0  0  0
    5.0324   -2.0628   18.7878 H   0  0  0  0  0  0  0  0  0  0  0  0
    3.7094    0.0597   19.0730 H   0  0  0  0  0  0  0  0  0  0  0  0
    3.5063    0.0317   17.3121 H   0  0  0  0  0  0  0  0  0  0  0  0
    5.0715    2.3427   19.1627 H   0  0  0  0  0  0  0  0  0  0  0  0
    7.2886    3.3641   18.2204 H   0  0  0  0  0  0  0  0  0  0  0  0
    6.5892   -0.7295   16.5092 H   0  0  0  0  0  0  0  0  0  0  0  0
    4.3333   -4.0542   15.7868 H   0  0  0  0  0  0  0  0  0  0  0  0
    6.5440   -6.6398   17.9806 H   0  0  0  0  0  0  0  0  0  0  0  0
    1.9927   -9.1945   19.5639 H   0  0  0  0  0  0  0  0  0  0  0  0
   -0.2211   -8.6947   18.3614 H   0  0  0  0  0  0  0  0  0  0  0  0
    2.8833   -8.1132   15.8411 H   0  0  0  0  0  0  0  0  0  0  0  0
  1  2  2  0
  2  3  1  0
  3  4  1  0
  4  5  1  0
  5  6  1  0
  6  7  2  0
  7  8  1  0
  8  9  1  0
  2 10  1  0
 10 11  2  0
 11 12  1  0
 12 13  2  0
 13 14  1  0
 14 15  1  0
 15 16  1  0
 16 17  2  0
 17 18  1  0
 18 19  2  0
 14 20  2  0
  9  5  2  0
 20 10  1  0
 19 15  1  0
  3 21  1  0
  4 22  1  0
  4 23  1  0
  6 24  1  0
  7 25  1  0
  9 26  1  0
 11 27  1  0
 13 28  1  0
 16 29  1  0
 17 30  1  0
 19 31  1  0
M  END
>  <Energy>  (1229) 
441.48381131509564

>  <compound_id>  (1229) 
8191

>  <target_id>  (1229) 
1

>  <reference_id>  (1229) 
64

>  <inspiration_ids>  (1229) 
[64, 120]

>  <energy_score>  (1229) 
316.9152721138543

>  <distance_score>  (1229) 
15.85641427718543

>  <path>  (1229) 
/opt/xchem-fragalysis-2/maxwin/BulkDock/SCRATCH/511017/C8191-P64/C8191-P64.minimised.mol

>  <scratch_subdir>  (1229) 
/opt/xchem-fragalysis-2/maxwin/BulkDock/SCRATCH/511017/C8191-P64

>  <fragmenstein_runtime>  (1229) 
16.301292419433594

>  <fragmenstein_outcome>  (1229) 
too moved

>  <fragmenstein_mode>  (1229) 
expansion

>  <fragmenstein_error>  (1229) 


$$$$
C8191-P120
     RDKit          3D

 31 33  0  0  0  0  0  0  0  0999 V2000
   -2.0699   -3.5187   23.5351 O   0  0  0  0  0  0  0  0  0  0  0  0
   -0.9223   -3.8591   23.4686 C   0  0  0  0  0  0  0  0  0  0  0  0
    0.2644   -3.1326   22.9997 N   0  0  0  0  0  0  0  0  0  0  0  0
    0.4267   -1.7496   22.5635 C   0  0  0  0  0  0  0  0  0  0  0  0
    1.8665   -1.2708   22.3898 C   0  0  0  0  0  0  0  0  0  0  0  0
    2.2806   -0.3504   21.3475 C   0  0  0  0  0  0  0  0  0  0  0  0
    3.6313   -0.0670   21.3504 C   0  0  0  0  0  0  0  0  0  0  0  0
    4.4291   -0.8412   22.6388 S   0  0  0  0  0  0  0  0  0  0  0  0
    2.9607   -1.5481   23.1941 C   0  0  0  0  0  0  0  0  0  0  0  0
   -0.6470   -5.2439   24.0687 C   0  0  0  0  0  0  0  0  0  0  0  0
    0.5237   -5.3788   24.7915 C   0  0  0  0  0  0  0  0  0  0  0  0
    0.8639   -6.5251   25.4118 N   0  0  0  0  0  0  0  0  0  0  0  0
   -0.0868   -7.5074   25.3765 C   0  0  0  0  0  0  0  0  0  0  0  0
   -1.3101   -7.4320   24.7035 C   0  0  0  0  0  0  0  0  0  0  0  0
   -2.2370   -8.5793   24.7535 N   0  0  0  0  0  0  0  0  0  0  0  0
   -3.4819   -8.6868   24.1549 C   0  0  0  0  0  0  0  0  0  0  0  0
   -3.9778   -9.9384   24.4647 C   0  0  0  0  0  0  0  0  0  0  0  0
   -3.0954  -10.6294   25.2438 N   0  0  0  0  0  0  0  0  0  0  0  0
   -2.0799   -9.8034   25.4049 C   0  0  0  0  0  0  0  0  0  0  0  0
   -1.6021   -6.2674   24.0258 N   0  0  0  0  0  0  0  0  0  0  0  0
    1.0597   -3.7571   23.0060 H   0  0  0  0  0  0  0  0  0  0  0  0
   -0.0848   -1.1134   23.2941 H   0  0  0  0  0  0  0  0  0  0  0  0
   -0.1150   -1.6581   21.6155 H   0  0  0  0  0  0  0  0  0  0  0  0
    1.6036    0.0556   20.6037 H   0  0  0  0  0  0  0  0  0  0  0  0
    4.1742    0.5652   20.6618 H   0  0  0  0  0  0  0  0  0  0  0  0
    2.9821   -2.1531   24.0892 H   0  0  0  0  0  0  0  0  0  0  0  0
    1.1875   -4.5450   24.9789 H   0  0  0  0  0  0  0  0  0  0  0  0
    0.1776   -8.3642   25.9847 H   0  0  0  0  0  0  0  0  0  0  0  0
   -3.8861   -7.8726   23.5685 H   0  0  0  0  0  0  0  0  0  0  0  0
   -4.9245  -10.3672   24.1609 H   0  0  0  0  0  0  0  0  0  0  0  0
   -1.2053  -10.0423   25.9909 H   0  0  0  0  0  0  0  0  0  0  0  0
  1  2  2  0
  2  3  1  0
  3  4  1  0
  4  5  1  0
  5  6  1  0
  6  7  2  0
  7  8  1  0
  8  9  1  0
  2 10  1  0
 10 11  2  0
 11 12  1  0
 12 13  2  0
 13 14  1  0
 14 15  1  0
 15 16  1  0
 16 17  2  0
 17 18  1  0
 18 19  2  0
 14 20  2  0
  9  5  2  0
 20 10  1  0
 19 15  1  0
  3 21  1  0
  4 22  1  0
  4 23  1  0
  6 24  1  0
  7 25  1  0
  9 26  1  0
 11 27  1  0
 13 28  1  0
 16 29  1  0
 17 30  1  0
 19 31  1  0
M  END
>  <Energy>  (1230) 
123.40642388802631

>  <compound_id>  (1230) 
8191

>  <target_id>  (1230) 
1

>  <reference_id>  (1230) 
120

>  <inspiration_ids>  (1230) 
[64, 120]

>  <energy_score>  (1230) 
-1.1621153132153381

>  <distance_score>  (1230) 
16.94131184633014

>  <path>  (1230) 
/opt/xchem-fragalysis-2/maxwin/BulkDock/SCRATCH/511017/C8191-P120/C8191-P120.minimised.mol

>  <scratch_subdir>  (1230) 
/opt/xchem-fragalysis-2/maxwin/BulkDock/SCRATCH/511017/C8191-P120

>  <fragmenstein_runtime>  (1230) 
12.026402473449707

>  <fragmenstein_outcome>  (1230) 
too moved

>  <fragmenstein_mode>  (1230) 
expansion

>  <fragmenstein_error>  (1230) 


$$$$
C8202-P64
     RDKit          3D

 40 42  0  0  0  0  0  0  0  0999 V2000
    8.7871  -11.8034   24.9108 O   0  0  0  0  0  0  0  0  0  0  0  0
    8.2251  -10.7465   24.8147 C   0  0  0  0  0  0  0  0  0  0  0  0
    9.0196   -9.4300   25.2462 C   0  0  0  0  0  0  0  0  0  0  0  0
   10.4358   -9.2469   24.5613 C   0  0  0  0  0  0  0  0  0  0  0  0
   10.8461   -7.8654   24.1199 C   0  0  0  0  0  0  0  0  0  0  0  0
   10.3093   -6.6937   24.3737 N   0  0  0  0  0  0  0  0  0  0  0  0
   10.9767   -5.7744   23.5741 N   0  0  0  0  0  0  0  0  0  0  0  0
   11.9177   -6.4264   22.9143 C   0  0  0  0  0  0  0  0  0  0  0  0
   12.9353   -5.7771   21.9038 C   0  0  0  0  0  0  0  0  0  0  0  0
   14.0625   -6.4218   21.3194 C   0  0  0  0  0  0  0  0  0  0  0  0
   14.7576   -5.5867   20.4665 C   0  0  0  0  0  0  0  0  0  0  0  0
   14.0241   -4.0479   20.3370 S   0  0  0  0  0  0  0  0  0  0  0  0
   12.8308   -4.4729   21.4868 C   0  0  0  0  0  0  0  0  0  0  0  0
   11.8860   -7.7744   23.2144 O   0  0  0  0  0  0  0  0  0  0  0  0
    6.9149  -10.4127   24.2620 N   0  0  0  0  0  0  0  0  0  0  0  0
    5.8844  -11.2725   23.5401 C   0  0  0  0  0  0  0  0  0  0  0  0
    4.0709  -11.7509   22.6807 C   0  0  0  0  0  0  0  0  0  0  0  0
    2.9844  -12.8166   23.8295 C   0  0  0  0  0  0  0  0  0  0  0  0
    1.6959  -13.1124   24.6539 N   0  0  0  0  0  0  0  0  0  0  0  0
    0.8026  -13.2614   25.9836 C   0  0  0  0  0  0  0  0  0  0  0  0
   -0.9635  -13.5121   25.4605 C   0  0  0  0  0  0  0  0  0  0  0  0
   -0.6550  -14.3330   24.2242 N   0  0  0  0  0  0  0  0  0  0  0  0
    0.6430  -14.1739   23.9365 C   0  0  0  0  0  0  0  0  0  0  0  0
    8.3947   -8.5420   25.1200 H   0  0  0  0  0  0  0  0  0  0  0  0
    9.1727   -9.5221   26.3297 H   0  0  0  0  0  0  0  0  0  0  0  0
   10.5233   -9.9213   23.7060 H   0  0  0  0  0  0  0  0  0  0  0  0
   11.1898   -9.5899   25.2818 H   0  0  0  0  0  0  0  0  0  0  0  0
   14.3633   -7.4429   21.5212 H   0  0  0  0  0  0  0  0  0  0  0  0
   15.6534   -5.8116   19.9035 H   0  0  0  0  0  0  0  0  0  0  0  0
   12.0768   -3.7658   21.7859 H   0  0  0  0  0  0  0  0  0  0  0  0
    6.7975   -9.3963   24.2695 H   0  0  0  0  0  0  0  0  0  0  0  0
    5.8497  -11.8597   24.4611 H   0  0  0  0  0  0  0  0  0  0  0  0
    5.3577  -10.3682   23.4363 H   0  0  0  0  0  0  0  0  0  0  0  0
    4.1168  -12.1999   21.6758 H   0  0  0  0  0  0  0  0  0  0  0  0
    3.5360  -10.8421   22.6708 H   0  0  0  0  0  0  0  0  0  0  0  0
    3.1227  -13.8044   23.4096 H   0  0  0  0  0  0  0  0  0  0  0  0
    2.2843  -12.1582   23.3248 H   0  0  0  0  0  0  0  0  0  0  0  0
    1.2375  -12.8806   26.8999 H   0  0  0  0  0  0  0  0  0  0  0  0
   -2.0052  -13.5707   25.7104 H   0  0  0  0  0  0  0  0  0  0  0  0
    1.2981  -14.6624   23.2732 H   0  0  0  0  0  0  0  0  0  0  0  0
  1  2  2  0
  2  3  1  0
  3  4  1  0
  4  5  1  0
  5  6  2  0
  6  7  1  0
  7  8  2  0
  8  9  1  0
  9 10  1  0
 10 11  2  0
 11 12  1  0
 12 13  1  0
  8 14  1  0
  2 15  1  0
 15 16  1  0
 16 17  1  0
 17 18  1  0
 18 19  1  0
 19 20  1  0
 20 21  2  0
 21 22  1  0
 22 23  2  0
 14  5  1  0
 23 19  1  0
 13  9  2  0
  3 24  1  0
  3 25  1  0
  4 26  1  0
  4 27  1  0
 10 28  1  0
 11 29  1  0
 13 30  1  0
 15 31  1  0
 16 32  1  0
 16 33  1  0
 17 34  1  0
 17 35  1  0
 18 36  1  0
 18 37  1  0
 20 38  1  0
 21 39  1  0
 23 40  1  0
M  END
>  <Energy>  (1231) 
418.79891965813749

>  <compound_id>  (1231) 
8202

>  <target_id>  (1231) 
1

>  <reference_id>  (1231) 
64

>  <inspiration_ids>  (1231) 
[64, 120]

>  <energy_score>  (1231) 
398.41862384105457

>  <distance_score>  (1231) 
14.281369994205164

>  <path>  (1231) 
/opt/xchem-fragalysis-2/maxwin/BulkDock/SCRATCH/511017/C8202-P64/C8202-P64.minimised.mol

>  <scratch_subdir>  (1231) 
/opt/xchem-fragalysis-2/maxwin/BulkDock/SCRATCH/511017/C8202-P64

>  <fragmenstein_runtime>  (1231) 
22.413375854492188

>  <fragmenstein_outcome>  (1231) 
too moved

>  <fragmenstein_mode>  (1231) 
expansion

>  <fragmenstein_error>  (1231) 


$$$$
C8202-P120
     RDKit          3D

 40 42  0  0  0  0  0  0  0  0999 V2000
    0.6641   -8.1792   19.6606 O   0  0  0  0  0  0  0  0  0  0  0  0
    0.5868   -8.0125   20.8562 C   0  0  0  0  0  0  0  0  0  0  0  0
    1.1372   -6.1886   21.3133 C   0  0  0  0  0  0  0  0  0  0  0  0
    1.0066   -4.5443   20.8603 C   0  0  0  0  0  0  0  0  0  0  0  0
    2.1802   -3.5850   20.9465 C   0  0  0  0  0  0  0  0  0  0  0  0
    2.5125   -2.8119   21.9644 N   0  0  0  0  0  0  0  0  0  0  0  0
    3.4941   -1.9496   21.5144 N   0  0  0  0  0  0  0  0  0  0  0  0
    3.5881   -2.1305   20.2123 C   0  0  0  0  0  0  0  0  0  0  0  0
    4.3935   -1.1860   19.2633 C   0  0  0  0  0  0  0  0  0  0  0  0
    4.1897   -1.1431   17.8625 C   0  0  0  0  0  0  0  0  0  0  0  0
    4.9668   -0.1845   17.2590 C   0  0  0  0  0  0  0  0  0  0  0  0
    5.9582    0.6457   18.3721 S   0  0  0  0  0  0  0  0  0  0  0  0
    5.3145   -0.2524   19.6863 C   0  0  0  0  0  0  0  0  0  0  0  0
    2.7894   -3.1713   19.7775 O   0  0  0  0  0  0  0  0  0  0  0  0
    0.0806   -8.8783   21.8962 N   0  0  0  0  0  0  0  0  0  0  0  0
   -0.6232  -10.2540   21.8189 C   0  0  0  0  0  0  0  0  0  0  0  0
   -0.1569  -11.9942   22.5080 C   0  0  0  0  0  0  0  0  0  0  0  0
   -0.3765  -13.9555   23.2683 C   0  0  0  0  0  0  0  0  0  0  0  0
   -1.2825  -15.5802   23.2351 N   0  0  0  0  0  0  0  0  0  0  0  0
   -0.5153  -16.9001   21.8276 C   0  0  0  0  0  0  0  0  0  0  0  0
   -1.0795  -18.6933   22.3216 C   0  0  0  0  0  0  0  0  0  0  0  0
   -2.0166  -18.4962   24.1481 N   0  0  0  0  0  0  0  0  0  0  0  0
   -2.2735  -16.7048   24.5159 C   0  0  0  0  0  0  0  0  0  0  0  0
    0.8625   -6.0726   22.3635 H   0  0  0  0  0  0  0  0  0  0  0  0
    1.9978   -6.2137   20.6881 H   0  0  0  0  0  0  0  0  0  0  0  0
    0.5916   -4.3680   19.8711 H   0  0  0  0  0  0  0  0  0  0  0  0
    0.2688   -4.1177   21.5528 H   0  0  0  0  0  0  0  0  0  0  0  0
    3.4896   -1.7679   17.3194 H   0  0  0  0  0  0  0  0  0  0  0  0
    4.9698    0.0467   16.2087 H   0  0  0  0  0  0  0  0  0  0  0  0
    5.6379   -0.0512   20.6990 H   0  0  0  0  0  0  0  0  0  0  0  0
    0.2489   -8.4457   22.7938 H   0  0  0  0  0  0  0  0  0  0  0  0
   -0.8559  -10.4104   20.7733 H   0  0  0  0  0  0  0  0  0  0  0  0
   -1.6011   -9.9113   22.1505 H   0  0  0  0  0  0  0  0  0  0  0  0
    0.8570  -11.6110   22.6018 H   0  0  0  0  0  0  0  0  0  0  0  0
   -1.1044  -12.0092   21.7975 H   0  0  0  0  0  0  0  0  0  0  0  0
   -0.8389  -13.9745   24.2727 H   0  0  0  0  0  0  0  0  0  0  0  0
    0.6079  -14.2250   23.6593 H   0  0  0  0  0  0  0  0  0  0  0  0
   -0.1583  -16.4594   20.9121 H   0  0  0  0  0  0  0  0  0  0  0  0
   -0.9613  -19.6876   21.9075 H   0  0  0  0  0  0  0  0  0  0  0  0
   -2.9404  -16.1800   25.1963 H   0  0  0  0  0  0  0  0  0  0  0  0
  1  2  2  0
  2  3  1  0
  3  4  1  0
  4  5  1  0
  5  6  2  0
  6  7  1  0
  7  8  2  0
  8  9  1  0
  9 10  1  0
 10 11  2  0
 11 12  1  0
 12 13  1  0
  8 14  1  0
  2 15  1  0
 15 16  1  0
 16 17  1  0
 17 18  1  0
 18 19  1  0
 19 20  1  0
 20 21  2  0
 21 22  1  0
 22 23  2  0
 14  5  1  0
 23 19  1  0
 13  9  2  0
  3 24  1  0
  3 25  1  0
  4 26  1  0
  4 27  1  0
 10 28  1  0
 11 29  1  0
 13 30  1  0
 15 31  1  0
 16 32  1  0
 16 33  1  0
 17 34  1  0
 17 35  1  0
 18 36  1  0
 18 37  1  0
 20 38  1  0
 21 39  1  0
 23 40  1  0
M  END
>  <Energy>  (1232) 
1023.1527503993582

>  <compound_id>  (1232) 
8202

>  <target_id>  (1232) 
1

>  <reference_id>  (1232) 
120

>  <inspiration_ids>  (1232) 
[64, 120]

>  <energy_score>  (1232) 
1002.7724545822888

>  <distance_score>  (1232) 
13.815208191824615

>  <path>  (1232) 
/opt/xchem-fragalysis-2/maxwin/BulkDock/SCRATCH/511017/C8202-P120/C8202-P120.minimised.mol

>  <scratch_subdir>  (1232) 
/opt/xchem-fragalysis-2/maxwin/BulkDock/SCRATCH/511017/C8202-P120

>  <fragmenstein_runtime>  (1232) 
13.37579894065857

>  <fragmenstein_outcome>  (1232) 
too moved

>  <fragmenstein_mode>  (1232) 
expansion

>  <fragmenstein_error>  (1232) 


$$$$
C8205-P64
     RDKit          3D

 52 53  0  0  0  0  0  0  0  0999 V2000
   -0.8224  -13.0461   11.8672 C   0  0  0  0  0  0  0  0  0  0  0  0
   -0.1496  -14.0460   12.6527 N   0  0  0  0  0  0  0  0  0  0  0  0
   -0.7652  -15.1425   13.2209 C   0  0  0  0  0  0  0  0  0  0  0  0
    0.2456  -15.8498   13.8154 C   0  0  0  0  0  0  0  0  0  0  0  0
    1.4526  -15.2263   13.5885 N   0  0  0  0  0  0  0  0  0  0  0  0
    1.2064  -14.0886   12.9295 C   0  0  0  0  0  0  0  0  0  0  0  0
    2.3010  -12.9830   12.7274 C   0  0  0  0  0  0  0  0  0  0  0  0
    2.3443  -11.8095   11.6941 C   0  0  0  0  0  0  0  0  0  0  0  0
    3.5246  -10.7225   12.0029 C   0  0  0  0  0  0  0  0  0  0  0  0
    4.2121  -10.8882   12.9716 O   0  0  0  0  0  0  0  0  0  0  0  0
    3.5072   -9.6345   11.0208 N   0  0  0  0  0  0  0  0  0  0  0  0
    4.2870   -8.3121   10.9680 C   0  0  0  0  0  0  0  0  0  0  0  0
    4.0144   -7.4108   12.2308 C   0  0  0  0  0  0  0  0  0  0  0  0
    4.2152   -5.9551   12.0724 N   0  0  0  0  0  0  0  0  0  0  0  0
    3.4290   -5.2268   13.0790 C   0  0  0  0  0  0  0  0  0  0  0  0
    3.8785   -3.8043   13.2120 C   0  0  0  0  0  0  0  0  0  0  0  0
    4.3360   -2.9404   12.1645 C   0  0  0  0  0  0  0  0  0  0  0  0
    4.7148   -1.7031   12.6301 C   0  0  0  0  0  0  0  0  0  0  0  0
    4.4347   -1.5432   14.3025 S   0  0  0  0  0  0  0  0  0  0  0  0
    3.9066   -3.1456   14.4277 C   0  0  0  0  0  0  0  0  0  0  0  0
    5.8169   -8.3324   10.4821 C   0  0  0  0  0  0  0  0  0  0  0  0
    6.1729   -7.0552    9.6544 C   0  0  0  0  0  0  0  0  0  0  0  0
    6.8300   -8.4556   11.6325 C   0  0  0  0  0  0  0  0  0  0  0  0
    6.0299   -9.5404    9.5417 C   0  0  0  0  0  0  0  0  0  0  0  0
   -0.3273  -12.9736   10.8958 H   0  0  0  0  0  0  0  0  0  0  0  0
   -1.8660  -13.3362   11.7190 H   0  0  0  0  0  0  0  0  0  0  0  0
   -0.7792  -12.0939   12.3948 H   0  0  0  0  0  0  0  0  0  0  0  0
   -1.8303  -15.3073   13.1632 H   0  0  0  0  0  0  0  0  0  0  0  0
    0.1848  -16.7708   14.3774 H   0  0  0  0  0  0  0  0  0  0  0  0
    2.3946  -12.5278   13.7150 H   0  0  0  0  0  0  0  0  0  0  0  0
    3.2286  -13.5435   12.5495 H   0  0  0  0  0  0  0  0  0  0  0  0
    2.5158  -12.2119   10.6898 H   0  0  0  0  0  0  0  0  0  0  0  0
    1.3977  -11.2646   11.6862 H   0  0  0  0  0  0  0  0  0  0  0  0
    2.7371   -9.7798   10.3788 H   0  0  0  0  0  0  0  0  0  0  0  0
    3.7476   -7.8173   10.1461 H   0  0  0  0  0  0  0  0  0  0  0  0
    2.9626   -7.5835   12.4970 H   0  0  0  0  0  0  0  0  0  0  0  0
    4.6041   -7.7784   13.0744 H   0  0  0  0  0  0  0  0  0  0  0  0
    3.8932   -5.6587   11.1532 H   0  0  0  0  0  0  0  0  0  0  0  0
    3.5055   -5.7233   14.0558 H   0  0  0  0  0  0  0  0  0  0  0  0
    2.3687   -5.2378   12.7967 H   0  0  0  0  0  0  0  0  0  0  0  0
    4.4237   -3.2256   11.1234 H   0  0  0  0  0  0  0  0  0  0  0  0
    5.1196   -0.8837   12.0560 H   0  0  0  0  0  0  0  0  0  0  0  0
    3.6273   -3.5391   15.3932 H   0  0  0  0  0  0  0  0  0  0  0  0
    7.2485   -6.9953    9.4558 H   0  0  0  0  0  0  0  0  0  0  0  0
    5.8576   -6.1323   10.1331 H   0  0  0  0  0  0  0  0  0  0  0  0
    5.6631   -7.0819    8.6837 H   0  0  0  0  0  0  0  0  0  0  0  0
    7.8535   -8.5235   11.2503 H   0  0  0  0  0  0  0  0  0  0  0  0
    6.7768   -7.6094   12.3040 H   0  0  0  0  0  0  0  0  0  0  0  0
    6.6383   -9.3579   12.2235 H   0  0  0  0  0  0  0  0  0  0  0  0
    5.9098  -10.4902   10.0740 H   0  0  0  0  0  0  0  0  0  0  0  0
    7.0389   -9.5347    9.1128 H   0  0  0  0  0  0  0  0  0  0  0  0
    5.3172   -9.5249    8.7095 H   0  0  0  0  0  0  0  0  0  0  0  0
  1  2  1  0
  2  3  1  0
  3  4  2  0
  4  5  1  0
  5  6  2  0
  6  7  1  0
  7  8  1  0
  8  9  1  0
  9 10  2  0
  9 11  1  0
 11 12  1  0
 12 13  1  0
 13 14  1  0
 14 15  1  0
 15 16  1  0
 16 17  1  0
 17 18  2  0
 18 19  1  0
 19 20  1  0
 12 21  1  0
 21 22  1  0
 21 23  1  0
 21 24  1  0
  6  2  1  0
 20 16  2  0
  1 25  1  0
  1 26  1  0
  1 27  1  0
  3 28  1  0
  4 29  1  0
  7 30  1  0
  7 31  1  0
  8 32  1  0
  8 33  1  0
 11 34  1  0
 12 35  1  0
 13 36  1  0
 13 37  1  0
 14 38  1  0
 15 39  1  0
 15 40  1  0
 17 41  1  0
 18 42  1  0
 20 43  1  0
 22 44  1  0
 22 45  1  0
 22 46  1  0
 23 47  1  0
 23 48  1  0
 23 49  1  0
 24 50  1  0
 24 51  1  0
 24 52  1  0
M  END
>  <Energy>  (1233) 
51.173510504386869

>  <compound_id>  (1233) 
8205

>  <target_id>  (1233) 
1

>  <reference_id>  (1233) 
64

>  <inspiration_ids>  (1233) 
[64, 120]

>  <energy_score>  (1233) 
-21.777932005360185

>  <distance_score>  (1233) 
15.432159652824943

>  <path>  (1233) 
/opt/xchem-fragalysis-2/maxwin/BulkDock/SCRATCH/511017/C8205-P64/C8205-P64.minimised.mol

>  <scratch_subdir>  (1233) 
/opt/xchem-fragalysis-2/maxwin/BulkDock/SCRATCH/511017/C8205-P64

>  <fragmenstein_runtime>  (1233) 
41.70950984954834

>  <fragmenstein_outcome>  (1233) 
too moved

>  <fragmenstein_mode>  (1233) 
expansion

>  <fragmenstein_error>  (1233) 


$$$$
C8205-P120
     RDKit          3D

 52 53  0  0  0  0  0  0  0  0999 V2000
   -2.1972  -14.1185   16.7274 C   0  0  0  0  0  0  0  0  0  0  0  0
   -1.8382  -13.5239   17.9852 N   0  0  0  0  0  0  0  0  0  0  0  0
   -1.8595  -14.7457   19.0543 C   0  0  0  0  0  0  0  0  0  0  0  0
   -1.9786  -14.0652   20.2799 C   0  0  0  0  0  0  0  0  0  0  0  0
   -1.9978  -12.4808   20.0529 N   0  0  0  0  0  0  0  0  0  0  0  0
   -1.7952  -12.0767   18.7261 C   0  0  0  0  0  0  0  0  0  0  0  0
   -1.5849  -10.2205   18.3007 C   0  0  0  0  0  0  0  0  0  0  0  0
   -0.0842   -8.8983   18.0417 C   0  0  0  0  0  0  0  0  0  0  0  0
    1.6887   -8.7720   18.7631 C   0  0  0  0  0  0  0  0  0  0  0  0
    1.6807   -9.1384   19.9059 O   0  0  0  0  0  0  0  0  0  0  0  0
    2.9608   -8.0709   17.8295 N   0  0  0  0  0  0  0  0  0  0  0  0
    4.8591   -7.4570   18.3240 C   0  0  0  0  0  0  0  0  0  0  0  0
    6.7431   -7.0390   19.1667 C   0  0  0  0  0  0  0  0  0  0  0  0
    8.1046   -5.9704   19.8992 N   0  0  0  0  0  0  0  0  0  0  0  0
    9.9530   -5.6429   19.4123 C   0  0  0  0  0  0  0  0  0  0  0  0
   11.0785   -4.8570   17.8208 C   0  0  0  0  0  0  0  0  0  0  0  0
   12.6161   -4.5168   18.0944 C   0  0  0  0  0  0  0  0  0  0  0  0
   12.9740   -3.2020   17.8051 C   0  0  0  0  0  0  0  0  0  0  0  0
   12.2891   -2.8911   16.2649 S   0  0  0  0  0  0  0  0  0  0  0  0
   11.0948   -4.1764   16.5283 C   0  0  0  0  0  0  0  0  0  0  0  0
    5.0701   -6.4681   16.9408 C   0  0  0  0  0  0  0  0  0  0  0  0
    5.0616   -5.4390   17.9152 C   0  0  0  0  0  0  0  0  0  0  0  0
    6.3847   -6.3631   16.2897 C   0  0  0  0  0  0  0  0  0  0  0  0
    4.1380   -5.9575   15.4878 C   0  0  0  0  0  0  0  0  0  0  0  0
   -2.3411  -15.2016   16.8169 H   0  0  0  0  0  0  0  0  0  0  0  0
   -1.4287  -14.1870   16.0016 H   0  0  0  0  0  0  0  0  0  0  0  0
   -3.1983  -13.8787   16.4398 H   0  0  0  0  0  0  0  0  0  0  0  0
   -1.9105  -15.7826   18.7541 H   0  0  0  0  0  0  0  0  0  0  0  0
   -1.9598  -14.5878   21.1832 H   0  0  0  0  0  0  0  0  0  0  0  0
   -2.3415  -10.0115   17.5396 H   0  0  0  0  0  0  0  0  0  0  0  0
   -2.0320   -9.8169   19.2294 H   0  0  0  0  0  0  0  0  0  0  0  0
   -0.5037   -8.2260   18.7913 H   0  0  0  0  0  0  0  0  0  0  0  0
   -0.1293   -8.3815   17.0801 H   0  0  0  0  0  0  0  0  0  0  0  0
    2.6627   -7.9615   16.8791 H   0  0  0  0  0  0  0  0  0  0  0  0
    5.0020   -8.5275   18.4713 H   0  0  0  0  0  0  0  0  0  0  0  0
    7.4461   -7.7557   19.2850 H   0  0  0  0  0  0  0  0  0  0  0  0
    6.5663   -7.4956   20.1437 H   0  0  0  0  0  0  0  0  0  0  0  0
    8.2404   -6.4022   20.8270 H   0  0  0  0  0  0  0  0  0  0  0  0
    9.6169   -4.8621   20.1753 H   0  0  0  0  0  0  0  0  0  0  0  0
   10.6685   -5.8338   20.2702 H   0  0  0  0  0  0  0  0  0  0  0  0
   13.1403   -5.0192   17.3003 H   0  0  0  0  0  0  0  0  0  0  0  0
   13.8392   -2.6502   18.1464 H   0  0  0  0  0  0  0  0  0  0  0  0
   10.4003   -4.0447   15.7169 H   0  0  0  0  0  0  0  0  0  0  0  0
    4.4810   -4.6901   17.3518 H   0  0  0  0  0  0  0  0  0  0  0  0
    6.0764   -5.3196   18.2886 H   0  0  0  0  0  0  0  0  0  0  0  0
    4.6315   -5.3606   18.9142 H   0  0  0  0  0  0  0  0  0  0  0  0
    7.1037   -6.2304   17.0238 H   0  0  0  0  0  0  0  0  0  0  0  0
    6.2815   -5.4896   15.7342 H   0  0  0  0  0  0  0  0  0  0  0  0
    6.6780   -7.0664   15.5287 H   0  0  0  0  0  0  0  0  0  0  0  0
    4.1142   -4.8640   15.3971 H   0  0  0  0  0  0  0  0  0  0  0  0
    4.6015   -6.3067   14.5632 H   0  0  0  0  0  0  0  0  0  0  0  0
    3.1636   -6.3989   15.2386 H   0  0  0  0  0  0  0  0  0  0  0  0
  1  2  1  0
  2  3  1  0
  3  4  2  0
  4  5  1  0
  5  6  2  0
  6  7  1  0
  7  8  1  0
  8  9  1  0
  9 10  2  0
  9 11  1  0
 11 12  1  0
 12 13  1  0
 13 14  1  0
 14 15  1  0
 15 16  1  0
 16 17  1  0
 17 18  2  0
 18 19  1  0
 19 20  1  0
 12 21  1  0
 21 22  1  0
 21 23  1  0
 21 24  1  0
  6  2  1  0
 20 16  2  0
  1 25  1  0
  1 26  1  0
  1 27  1  0
  3 28  1  0
  4 29  1  0
  7 30  1  0
  7 31  1  0
  8 32  1  0
  8 33  1  0
 11 34  1  0
 12 35  1  0
 13 36  1  0
 13 37  1  0
 14 38  1  0
 15 39  1  0
 15 40  1  0
 17 41  1  0
 18 42  1  0
 20 43  1  0
 22 44  1  0
 22 45  1  0
 22 46  1  0
 23 47  1  0
 23 48  1  0
 23 49  1  0
 24 50  1  0
 24 51  1  0
 24 52  1  0
M  END
>  <Energy>  (1234) 
1148.3202969818078

>  <compound_id>  (1234) 
8205

>  <target_id>  (1234) 
1

>  <reference_id>  (1234) 
120

>  <inspiration_ids>  (1234) 
[64, 120]

>  <energy_score>  (1234) 
1075.3688544720635

>  <distance_score>  (1234) 
12.615269464840491

>  <path>  (1234) 
/opt/xchem-fragalysis-2/maxwin/BulkDock/SCRATCH/511017/C8205-P120/C8205-P120.minimised.mol

>  <scratch_subdir>  (1234) 
/opt/xchem-fragalysis-2/maxwin/BulkDock/SCRATCH/511017/C8205-P120

>  <fragmenstein_runtime>  (1234) 
26.688148975372314

>  <fragmenstein_outcome>  (1234) 
too moved

>  <fragmenstein_mode>  (1234) 
expansion

>  <fragmenstein_error>  (1234) 


$$$$
C8213-P64
     RDKit          3D

 46 47  0  0  0  0  0  0  0  0999 V2000
    2.1077   -2.4539   15.3639 C   0  0  0  0  0  0  0  0  0  0  0  0
    3.1331   -2.9293   16.3984 C   0  0  0  0  0  0  0  0  0  0  0  0
    2.5986   -4.1737   17.2144 C   0  0  0  0  0  0  0  0  0  0  0  0
    1.1262   -4.1033   17.7344 C   0  0  0  0  0  0  0  0  0  0  0  0
    0.5424   -5.2664   18.4497 N   0  0  0  0  0  0  0  0  0  0  0  0
   -0.4310   -6.2662   18.0165 C   0  0  0  0  0  0  0  0  0  0  0  0
   -0.9437   -6.4455   16.9453 O   0  0  0  0  0  0  0  0  0  0  0  0
   -0.9249   -7.1634   19.2282 C   0  0  0  0  0  0  0  0  0  0  0  0
   -2.0432   -8.1570   18.7905 C   0  0  0  0  0  0  0  0  0  0  0  0
   -2.8784   -8.9231   19.8308 C   0  0  0  0  0  0  0  0  0  0  0  0
   -3.0417   -8.6556   21.1172 N   0  0  0  0  0  0  0  0  0  0  0  0
   -4.1232   -9.3980   21.5311 C   0  0  0  0  0  0  0  0  0  0  0  0
   -4.6023  -10.1757   20.5077 C   0  0  0  0  0  0  0  0  0  0  0  0
   -3.7548   -9.9396   19.4672 N   0  0  0  0  0  0  0  0  0  0  0  0
   -3.8600  -10.5470   18.1657 C   0  0  0  0  0  0  0  0  0  0  0  0
    3.5635   -1.8317   17.2891 N   0  0  0  0  0  0  0  0  0  0  0  0
    4.2697   -0.7340   16.6113 C   0  0  0  0  0  0  0  0  0  0  0  0
    5.0195    0.0803   17.6352 C   0  0  0  0  0  0  0  0  0  0  0  0
    5.4912   -0.3814   18.9128 C   0  0  0  0  0  0  0  0  0  0  0  0
    6.1677    0.5814   19.6218 C   0  0  0  0  0  0  0  0  0  0  0  0
    6.2346    2.0565   18.7697 S   0  0  0  0  0  0  0  0  0  0  0  0
    5.3317    1.4182   17.4760 C   0  0  0  0  0  0  0  0  0  0  0  0
    2.5556   -1.7457   14.6587 H   0  0  0  0  0  0  0  0  0  0  0  0
    1.7313   -3.2986   14.7768 H   0  0  0  0  0  0  0  0  0  0  0  0
    1.2534   -1.9575   15.8363 H   0  0  0  0  0  0  0  0  0  0  0  0
    4.0026   -3.2965   15.8417 H   0  0  0  0  0  0  0  0  0  0  0  0
    2.6712   -5.0553   16.5636 H   0  0  0  0  0  0  0  0  0  0  0  0
    3.2623   -4.3764   18.0630 H   0  0  0  0  0  0  0  0  0  0  0  0
    1.0328   -3.2556   18.4214 H   0  0  0  0  0  0  0  0  0  0  0  0
    0.4561   -3.9231   16.8880 H   0  0  0  0  0  0  0  0  0  0  0  0
    0.8174   -5.4642   19.4060 H   0  0  0  0  0  0  0  0  0  0  0  0
   -1.3111   -6.4928   20.0040 H   0  0  0  0  0  0  0  0  0  0  0  0
   -0.0675   -7.7099   19.6333 H   0  0  0  0  0  0  0  0  0  0  0  0
   -1.5985   -8.8839   18.1042 H   0  0  0  0  0  0  0  0  0  0  0  0
   -2.7766   -7.5932   18.1968 H   0  0  0  0  0  0  0  0  0  0  0  0
   -4.5053   -9.3262   22.5406 H   0  0  0  0  0  0  0  0  0  0  0  0
   -5.4316  -10.8635   20.4547 H   0  0  0  0  0  0  0  0  0  0  0  0
   -4.8125  -11.0769   18.0865 H   0  0  0  0  0  0  0  0  0  0  0  0
   -3.0295  -11.2473   18.0565 H   0  0  0  0  0  0  0  0  0  0  0  0
   -3.8216   -9.7712   17.3979 H   0  0  0  0  0  0  0  0  0  0  0  0
    2.7608   -1.4410   17.7811 H   0  0  0  0  0  0  0  0  0  0  0  0
    4.9731   -1.0963   15.8557 H   0  0  0  0  0  0  0  0  0  0  0  0
    3.5418   -0.0932   16.0992 H   0  0  0  0  0  0  0  0  0  0  0  0
    5.3164   -1.3791   19.2973 H   0  0  0  0  0  0  0  0  0  0  0  0
    6.6002    0.4923   20.6087 H   0  0  0  0  0  0  0  0  0  0  0  0
    5.0653    2.0651   16.6509 H   0  0  0  0  0  0  0  0  0  0  0  0
  1  2  1  0
  2  3  1  0
  3  4  1  0
  4  5  1  0
  5  6  1  0
  6  7  2  0
  6  8  1  0
  8  9  1  0
  9 10  1  0
 10 11  2  0
 11 12  1  0
 12 13  2  0
 13 14  1  0
 14 15  1  0
  2 16  1  0
 16 17  1  0
 17 18  1  0
 18 19  1  0
 19 20  2  0
 20 21  1  0
 21 22  1  0
 14 10  1  0
 22 18  2  0
  1 23  1  0
  1 24  1  0
  1 25  1  0
  2 26  1  0
  3 27  1  0
  3 28  1  0
  4 29  1  0
  4 30  1  0
  5 31  1  0
  8 32  1  0
  8 33  1  0
  9 34  1  0
  9 35  1  0
 12 36  1  0
 13 37  1  0
 15 38  1  0
 15 39  1  0
 15 40  1  0
 16 41  1  0
 17 42  1  0
 17 43  1  0
 19 44  1  0
 20 45  1  0
 22 46  1  0
M  END
>  <Energy>  (1235) 
-2.3141296233870534

>  <compound_id>  (1235) 
8213

>  <target_id>  (1235) 
1

>  <reference_id>  (1235) 
64

>  <inspiration_ids>  (1235) 
[64, 120]

>  <energy_score>  (1235) 
-41.76418506205846

>  <distance_score>  (1235) 
14.68939868756187

>  <path>  (1235) 
/opt/xchem-fragalysis-2/maxwin/BulkDock/SCRATCH/511017/C8213-P64/C8213-P64.minimised.mol

>  <scratch_subdir>  (1235) 
/opt/xchem-fragalysis-2/maxwin/BulkDock/SCRATCH/511017/C8213-P64

>  <fragmenstein_runtime>  (1235) 
34.18533492088318

>  <fragmenstein_outcome>  (1235) 
too moved

>  <fragmenstein_mode>  (1235) 
expansion

>  <fragmenstein_error>  (1235) 


$$$$
C8213-P120
     RDKit          3D

 46 47  0  0  0  0  0  0  0  0999 V2000
    4.2104   -6.4188   17.4236 C   0  0  0  0  0  0  0  0  0  0  0  0
    5.5811   -6.9967   17.7984 C   0  0  0  0  0  0  0  0  0  0  0  0
    5.5676   -7.3186   19.3827 C   0  0  0  0  0  0  0  0  0  0  0  0
    6.7342   -8.1190   20.0632 C   0  0  0  0  0  0  0  0  0  0  0  0
    6.4755   -8.9978   21.2437 N   0  0  0  0  0  0  0  0  0  0  0  0
    6.8466   -8.8443   22.6598 C   0  0  0  0  0  0  0  0  0  0  0  0
    7.3803   -7.9353   23.2335 O   0  0  0  0  0  0  0  0  0  0  0  0
    6.5407  -10.1768   23.4575 C   0  0  0  0  0  0  0  0  0  0  0  0
    6.9828  -10.2559   24.9532 C   0  0  0  0  0  0  0  0  0  0  0  0
    6.7086  -11.5867   25.7222 C   0  0  0  0  0  0  0  0  0  0  0  0
    6.8596  -12.8273   25.2851 N   0  0  0  0  0  0  0  0  0  0  0  0
    6.4761  -13.6844   26.2972 C   0  0  0  0  0  0  0  0  0  0  0  0
    6.2099  -12.9740   27.4366 C   0  0  0  0  0  0  0  0  0  0  0  0
    6.4025  -11.6582   27.0789 N   0  0  0  0  0  0  0  0  0  0  0  0
    6.3492  -10.5374   27.9878 C   0  0  0  0  0  0  0  0  0  0  0  0
    6.6636   -6.0839   17.4881 N   0  0  0  0  0  0  0  0  0  0  0  0
    7.1468   -5.4967   16.0094 C   0  0  0  0  0  0  0  0  0  0  0  0
    7.7978   -3.5974   15.5202 C   0  0  0  0  0  0  0  0  0  0  0  0
    9.3149   -3.2063   15.0152 C   0  0  0  0  0  0  0  0  0  0  0  0
    9.5557   -1.8555   15.1098 C   0  0  0  0  0  0  0  0  0  0  0  0
    8.0897   -1.0342   15.2329 S   0  0  0  0  0  0  0  0  0  0  0  0
    7.1196   -2.4611   15.0164 C   0  0  0  0  0  0  0  0  0  0  0  0
    4.1403   -6.1964   16.3547 H   0  0  0  0  0  0  0  0  0  0  0  0
    3.9838   -5.5068   17.9836 H   0  0  0  0  0  0  0  0  0  0  0  0
    3.4198   -7.1434   17.6504 H   0  0  0  0  0  0  0  0  0  0  0  0
    5.6691   -7.9450   17.2660 H   0  0  0  0  0  0  0  0  0  0  0  0
    4.6449   -7.8776   19.5693 H   0  0  0  0  0  0  0  0  0  0  0  0
    5.4442   -6.3756   19.9329 H   0  0  0  0  0  0  0  0  0  0  0  0
    7.1438   -8.8160   19.3294 H   0  0  0  0  0  0  0  0  0  0  0  0
    7.5123   -7.4144   20.3718 H   0  0  0  0  0  0  0  0  0  0  0  0
    6.1142   -9.9353   21.0941 H   0  0  0  0  0  0  0  0  0  0  0  0
    5.4569  -10.3263   23.4086 H   0  0  0  0  0  0  0  0  0  0  0  0
    7.0635  -10.9734   22.9180 H   0  0  0  0  0  0  0  0  0  0  0  0
    8.0624  -10.0692   25.0117 H   0  0  0  0  0  0  0  0  0  0  0  0
    6.4943   -9.4333   25.4882 H   0  0  0  0  0  0  0  0  0  0  0  0
    6.4582  -14.7553   26.1501 H   0  0  0  0  0  0  0  0  0  0  0  0
    5.9314  -13.2753   28.4362 H   0  0  0  0  0  0  0  0  0  0  0  0
    6.1777  -10.8999   29.0046 H   0  0  0  0  0  0  0  0  0  0  0  0
    5.5288   -9.8818   27.6864 H   0  0  0  0  0  0  0  0  0  0  0  0
    7.3042  -10.0079   27.9426 H   0  0  0  0  0  0  0  0  0  0  0  0
    6.6565   -5.3475   18.1749 H   0  0  0  0  0  0  0  0  0  0  0  0
    6.0892   -5.5482   15.6612 H   0  0  0  0  0  0  0  0  0  0  0  0
    7.7512   -6.1661   15.4409 H   0  0  0  0  0  0  0  0  0  0  0  0
   10.1386   -3.9123   14.9827 H   0  0  0  0  0  0  0  0  0  0  0  0
   10.5006   -1.3371   15.0287 H   0  0  0  0  0  0  0  0  0  0  0  0
    6.0741   -2.3408   14.7676 H   0  0  0  0  0  0  0  0  0  0  0  0
  1  2  1  0
  2  3  1  0
  3  4  1  0
  4  5  1  0
  5  6  1  0
  6  7  2  0
  6  8  1  0
  8  9  1  0
  9 10  1  0
 10 11  2  0
 11 12  1  0
 12 13  2  0
 13 14  1  0
 14 15  1  0
  2 16  1  0
 16 17  1  0
 17 18  1  0
 18 19  1  0
 19 20  2  0
 20 21  1  0
 21 22  1  0
 14 10  1  0
 22 18  2  0
  1 23  1  0
  1 24  1  0
  1 25  1  0
  2 26  1  0
  3 27  1  0
  3 28  1  0
  4 29  1  0
  4 30  1  0
  5 31  1  0
  8 32  1  0
  8 33  1  0
  9 34  1  0
  9 35  1  0
 12 36  1  0
 13 37  1  0
 15 38  1  0
 15 39  1  0
 15 40  1  0
 16 41  1  0
 17 42  1  0
 17 43  1  0
 19 44  1  0
 20 45  1  0
 22 46  1  0
M  END
>  <Energy>  (1236) 
146.60964611387607

>  <compound_id>  (1236) 
8213

>  <target_id>  (1236) 
1

>  <reference_id>  (1236) 
120

>  <inspiration_ids>  (1236) 
[64, 120]

>  <energy_score>  (1236) 
107.15959067521038

>  <distance_score>  (1236) 
15.274026190309744

>  <path>  (1236) 
/opt/xchem-fragalysis-2/maxwin/BulkDock/SCRATCH/511017/C8213-P120/C8213-P120.minimised.mol

>  <scratch_subdir>  (1236) 
/opt/xchem-fragalysis-2/maxwin/BulkDock/SCRATCH/511017/C8213-P120

>  <fragmenstein_runtime>  (1236) 
31.957027196884155

>  <fragmenstein_outcome>  (1236) 
too moved

>  <fragmenstein_mode>  (1236) 
expansion

>  <fragmenstein_error>  (1236) 


$$$$
C8220-P64
     RDKit          3D

 43 44  0  0  0  0  0  0  0  0999 V2000
    4.3692   -4.3271   14.9586 C   0  0  0  0  0  0  0  0  0  0  0  0
    5.0197   -5.4689   15.7896 C   0  0  0  0  0  0  0  0  0  0  0  0
    6.2614   -6.3646   15.7691 C   0  0  0  0  0  0  0  0  0  0  0  0
    6.6267   -7.7236   14.7620 N   0  0  0  0  0  0  0  0  0  0  0  0
    5.8892   -7.9738   13.4572 C   0  0  0  0  0  0  0  0  0  0  0  0
    6.7838   -8.7763   12.5524 C   0  0  0  0  0  0  0  0  0  0  0  0
    7.2509   -8.3604   11.2641 C   0  0  0  0  0  0  0  0  0  0  0  0
    8.0453   -9.3023   10.6506 C   0  0  0  0  0  0  0  0  0  0  0  0
    8.1647  -10.7323   11.5734 S   0  0  0  0  0  0  0  0  0  0  0  0
    7.2226  -10.0585   12.8306 C   0  0  0  0  0  0  0  0  0  0  0  0
    4.1005   -6.3677   16.1748 N   0  0  0  0  0  0  0  0  0  0  0  0
    4.0172   -7.4252   17.6370 C   0  0  0  0  0  0  0  0  0  0  0  0
    4.9136   -7.4838   18.4354 O   0  0  0  0  0  0  0  0  0  0  0  0
    2.2106   -8.3963   17.9090 C   0  0  0  0  0  0  0  0  0  0  0  0
    0.4237   -8.5588   18.8952 C   0  0  0  0  0  0  0  0  0  0  0  0
    0.3765   -8.6026   20.5285 C   0  0  0  0  0  0  0  0  0  0  0  0
   -1.2451   -9.3075   18.5010 N   0  0  0  0  0  0  0  0  0  0  0  0
   -2.4718   -8.9333   19.0270 C   0  0  0  0  0  0  0  0  0  0  0  0
   -3.4413   -9.5558   18.2498 C   0  0  0  0  0  0  0  0  0  0  0  0
   -2.9901  -10.7321   17.8589 N   0  0  0  0  0  0  0  0  0  0  0  0
   -1.7627  -10.6706   18.3050 C   0  0  0  0  0  0  0  0  0  0  0  0
    3.8336   -4.7022   14.0767 H   0  0  0  0  0  0  0  0  0  0  0  0
    5.0881   -3.5505   14.6721 H   0  0  0  0  0  0  0  0  0  0  0  0
    3.6153   -3.7868   15.5410 H   0  0  0  0  0  0  0  0  0  0  0  0
    5.0210   -5.0197   16.7606 H   0  0  0  0  0  0  0  0  0  0  0  0
    6.2362   -6.7998   16.7781 H   0  0  0  0  0  0  0  0  0  0  0  0
    7.1698   -5.8109   15.9110 H   0  0  0  0  0  0  0  0  0  0  0  0
    7.6362   -7.8853   14.5910 H   0  0  0  0  0  0  0  0  0  0  0  0
    4.9856   -8.5796   13.5826 H   0  0  0  0  0  0  0  0  0  0  0  0
    5.5209   -7.0941   12.9252 H   0  0  0  0  0  0  0  0  0  0  0  0
    7.0275   -7.4150   10.7910 H   0  0  0  0  0  0  0  0  0  0  0  0
    8.5398   -9.2238    9.6919 H   0  0  0  0  0  0  0  0  0  0  0  0
    7.0165  -10.6424   13.7177 H   0  0  0  0  0  0  0  0  0  0  0  0
    3.2651   -6.5418   15.5835 H   0  0  0  0  0  0  0  0  0  0  0  0
    2.5380   -9.4308   17.8913 H   0  0  0  0  0  0  0  0  0  0  0  0
    1.7289   -8.1494   16.9591 H   0  0  0  0  0  0  0  0  0  0  0  0
   -0.1757   -7.7047   18.7706 H   0  0  0  0  0  0  0  0  0  0  0  0
    0.9935   -9.3854   20.9542 H   0  0  0  0  0  0  0  0  0  0  0  0
   -0.6243   -8.8284   20.9119 H   0  0  0  0  0  0  0  0  0  0  0  0
    0.6738   -7.6767   21.0080 H   0  0  0  0  0  0  0  0  0  0  0  0
   -2.5936   -8.2990   19.8790 H   0  0  0  0  0  0  0  0  0  0  0  0
   -4.4855   -9.3180   18.1058 H   0  0  0  0  0  0  0  0  0  0  0  0
   -1.2229  -11.5921   18.4191 H   0  0  0  0  0  0  0  0  0  0  0  0
  1  2  1  0
  2  3  1  0
  3  4  1  0
  4  5  1  0
  5  6  1  0
  6  7  1  0
  7  8  2  0
  8  9  1  0
  9 10  1  0
  2 11  1  0
 11 12  1  0
 12 13  2  0
 12 14  1  0
 14 15  1  0
 15 16  1  0
 15 17  1  0
 17 18  1  0
 18 19  2  0
 19 20  1  0
 20 21  2  0
 10  6  2  0
 21 17  1  0
  1 22  1  0
  1 23  1  0
  1 24  1  0
  2 25  1  0
  3 26  1  0
  3 27  1  0
  4 28  1  0
  5 29  1  0
  5 30  1  0
  7 31  1  0
  8 32  1  0
 10 33  1  0
 11 34  1  0
 14 35  1  0
 14 36  1  0
 15 37  1  0
 16 38  1  0
 16 39  1  0
 16 40  1  0
 18 41  1  0
 19 42  1  0
 21 43  1  0
M  END
>  <Energy>  (1237) 
404.53615671551523

>  <compound_id>  (1237) 
8220

>  <target_id>  (1237) 
1

>  <reference_id>  (1237) 
64

>  <inspiration_ids>  (1237) 
[64, 120]

>  <energy_score>  (1237) 
371.6095564123821

>  <distance_score>  (1237) 
15.05157746744727

>  <path>  (1237) 
/opt/xchem-fragalysis-2/maxwin/BulkDock/SCRATCH/511017/C8220-P64/C8220-P64.minimised.mol

>  <scratch_subdir>  (1237) 
/opt/xchem-fragalysis-2/maxwin/BulkDock/SCRATCH/511017/C8220-P64

>  <fragmenstein_runtime>  (1237) 
23.964783191680908

>  <fragmenstein_outcome>  (1237) 
too moved

>  <fragmenstein_mode>  (1237) 
expansion

>  <fragmenstein_error>  (1237) 


$$$$
C8220-P120
     RDKit          3D

 43 44  0  0  0  0  0  0  0  0999 V2000
    9.0928  -14.9391   16.2906 C   0  0  0  0  0  0  0  0  0  0  0  0
    7.9580  -14.2977   17.0872 C   0  0  0  0  0  0  0  0  0  0  0  0
    8.4986  -13.0442   17.9347 C   0  0  0  0  0  0  0  0  0  0  0  0
    8.6364  -11.6706   17.3694 N   0  0  0  0  0  0  0  0  0  0  0  0
    9.6009  -11.4083   16.3022 C   0  0  0  0  0  0  0  0  0  0  0  0
   11.0367  -11.5188   16.7241 C   0  0  0  0  0  0  0  0  0  0  0  0
   11.5667  -11.5988   18.0586 C   0  0  0  0  0  0  0  0  0  0  0  0
   12.9295  -11.7941   18.0858 C   0  0  0  0  0  0  0  0  0  0  0  0
   13.6021  -11.7893   16.5183 S   0  0  0  0  0  0  0  0  0  0  0  0
   12.0718  -11.5548   15.8051 C   0  0  0  0  0  0  0  0  0  0  0  0
    7.1594  -15.3499   17.8576 N   0  0  0  0  0  0  0  0  0  0  0  0
    7.2756  -16.8258   17.8869 C   0  0  0  0  0  0  0  0  0  0  0  0
    8.0790  -17.5567   17.3737 O   0  0  0  0  0  0  0  0  0  0  0  0
    6.0740  -17.5016   18.6712 C   0  0  0  0  0  0  0  0  0  0  0  0
    5.8603  -19.0855   18.5395 C   0  0  0  0  0  0  0  0  0  0  0  0
    5.6409  -19.4672   17.0670 C   0  0  0  0  0  0  0  0  0  0  0  0
    4.8061  -19.7278   19.4144 N   0  0  0  0  0  0  0  0  0  0  0  0
    4.8998  -19.9692   20.7714 C   0  0  0  0  0  0  0  0  0  0  0  0
    3.7286  -20.6003   21.1443 C   0  0  0  0  0  0  0  0  0  0  0  0
    2.9232  -20.7946   20.0600 N   0  0  0  0  0  0  0  0  0  0  0  0
    3.6027  -20.3100   19.0389 C   0  0  0  0  0  0  0  0  0  0  0  0
    9.6267  -14.2115   15.6771 H   0  0  0  0  0  0  0  0  0  0  0  0
    8.7069  -15.7067   15.6115 H   0  0  0  0  0  0  0  0  0  0  0  0
    9.8204  -15.4128   16.9582 H   0  0  0  0  0  0  0  0  0  0  0  0
    7.2231  -13.8982   16.3778 H   0  0  0  0  0  0  0  0  0  0  0  0
    7.7757  -12.9255   18.7531 H   0  0  0  0  0  0  0  0  0  0  0  0
    9.4294  -13.3452   18.4278 H   0  0  0  0  0  0  0  0  0  0  0  0
    8.8289  -11.0221   18.1292 H   0  0  0  0  0  0  0  0  0  0  0  0
    9.4354  -10.3940   15.9271 H   0  0  0  0  0  0  0  0  0  0  0  0
    9.3971  -12.0662   15.4516 H   0  0  0  0  0  0  0  0  0  0  0  0
   10.9753  -11.5657   18.9645 H   0  0  0  0  0  0  0  0  0  0  0  0
   13.5691  -11.9192   18.9490 H   0  0  0  0  0  0  0  0  0  0  0  0
   12.0022  -11.5038   14.7278 H   0  0  0  0  0  0  0  0  0  0  0  0
    6.3032  -15.0718   18.3382 H   0  0  0  0  0  0  0  0  0  0  0  0
    6.2525  -17.2907   19.7251 H   0  0  0  0  0  0  0  0  0  0  0  0
    5.1722  -16.9856   18.3345 H   0  0  0  0  0  0  0  0  0  0  0  0
    6.7896  -19.5696   18.8702 H   0  0  0  0  0  0  0  0  0  0  0  0
    6.4860  -19.1736   16.4392 H   0  0  0  0  0  0  0  0  0  0  0  0
    5.5242  -20.5507   16.9518 H   0  0  0  0  0  0  0  0  0  0  0  0
    4.7451  -18.9827   16.6631 H   0  0  0  0  0  0  0  0  0  0  0  0
    5.7690  -19.6726   21.3409 H   0  0  0  0  0  0  0  0  0  0  0  0
    3.4358  -20.9286   22.1332 H   0  0  0  0  0  0  0  0  0  0  0  0
    3.2610  -20.3268   18.0122 H   0  0  0  0  0  0  0  0  0  0  0  0
  1  2  1  0
  2  3  1  0
  3  4  1  0
  4  5  1  0
  5  6  1  0
  6  7  1  0
  7  8  2  0
  8  9  1  0
  9 10  1  0
  2 11  1  0
 11 12  1  0
 12 13  2  0
 12 14  1  0
 14 15  1  0
 15 16  1  0
 15 17  1  0
 17 18  1  0
 18 19  2  0
 19 20  1  0
 20 21  2  0
 10  6  2  0
 21 17  1  0
  1 22  1  0
  1 23  1  0
  1 24  1  0
  2 25  1  0
  3 26  1  0
  3 27  1  0
  4 28  1  0
  5 29  1  0
  5 30  1  0
  7 31  1  0
  8 32  1  0
 10 33  1  0
 11 34  1  0
 14 35  1  0
 14 36  1  0
 15 37  1  0
 16 38  1  0
 16 39  1  0
 16 40  1  0
 18 41  1  0
 19 42  1  0
 21 43  1  0
M  END
>  <Energy>  (1238) 
28.804265031104251

>  <compound_id>  (1238) 
8220

>  <target_id>  (1238) 
1

>  <reference_id>  (1238) 
120

>  <inspiration_ids>  (1238) 
[64, 120]

>  <energy_score>  (1238) 
-4.122335272023065

>  <distance_score>  (1238) 
16.17247363216695

>  <path>  (1238) 
/opt/xchem-fragalysis-2/maxwin/BulkDock/SCRATCH/511017/C8220-P120/C8220-P120.minimised.mol

>  <scratch_subdir>  (1238) 
/opt/xchem-fragalysis-2/maxwin/BulkDock/SCRATCH/511017/C8220-P120

>  <fragmenstein_runtime>  (1238) 
29.30079674720764

>  <fragmenstein_outcome>  (1238) 
too moved

>  <fragmenstein_mode>  (1238) 
expansion

>  <fragmenstein_error>  (1238) 


$$$$
C8221-P64
     RDKit          3D

 49 50  0  0  0  0  0  0  0  0999 V2000
   -2.8137  -11.5836   15.6208 C   0  0  0  0  0  0  0  0  0  0  0  0
   -2.4807  -10.2256   16.2213 C   0  0  0  0  0  0  0  0  0  0  0  0
   -2.6857  -10.1858   17.7016 C   0  0  0  0  0  0  0  0  0  0  0  0
   -3.3382  -11.0967   18.4080 N   0  0  0  0  0  0  0  0  0  0  0  0
   -3.3191  -10.6503   19.6933 C   0  0  0  0  0  0  0  0  0  0  0  0
   -2.6294   -9.4675   19.7857 C   0  0  0  0  0  0  0  0  0  0  0  0
   -2.2320   -9.1326   18.5001 N   0  0  0  0  0  0  0  0  0  0  0  0
   -1.7359   -7.7847   18.0388 C   0  0  0  0  0  0  0  0  0  0  0  0
   -1.9123   -6.6984   19.1092 C   0  0  0  0  0  0  0  0  0  0  0  0
   -0.3698   -7.6336   17.1993 C   0  0  0  0  0  0  0  0  0  0  0  0
    0.7621   -6.5773   17.6217 C   0  0  0  0  0  0  0  0  0  0  0  0
    0.8934   -6.3770   18.7974 O   0  0  0  0  0  0  0  0  0  0  0  0
    1.5455   -6.0802   16.4681 N   0  0  0  0  0  0  0  0  0  0  0  0
    2.8110   -5.2520   16.4151 C   0  0  0  0  0  0  0  0  0  0  0  0
    3.9528   -6.2800   16.3797 C   0  0  0  0  0  0  0  0  0  0  0  0
    3.0532   -4.1005   15.2826 C   0  0  0  0  0  0  0  0  0  0  0  0
    4.3575   -3.4091   15.4034 N   0  0  0  0  0  0  0  0  0  0  0  0
    4.7086   -2.1961   14.6395 C   0  0  0  0  0  0  0  0  0  0  0  0
    6.0323   -1.5789   15.1748 C   0  0  0  0  0  0  0  0  0  0  0  0
    7.3578   -1.8460   14.6823 C   0  0  0  0  0  0  0  0  0  0  0  0
    8.3697   -1.1316   15.2995 C   0  0  0  0  0  0  0  0  0  0  0  0
    7.7802   -0.0525   16.4932 S   0  0  0  0  0  0  0  0  0  0  0  0
    6.1477   -0.7064   16.2780 C   0  0  0  0  0  0  0  0  0  0  0  0
   -2.1964  -12.3737   16.0624 H   0  0  0  0  0  0  0  0  0  0  0  0
   -3.8648  -11.8443   15.7851 H   0  0  0  0  0  0  0  0  0  0  0  0
   -2.6330  -11.5746   14.5413 H   0  0  0  0  0  0  0  0  0  0  0  0
   -3.1068   -9.4601   15.7493 H   0  0  0  0  0  0  0  0  0  0  0  0
   -1.4376   -9.9930   15.9850 H   0  0  0  0  0  0  0  0  0  0  0  0
   -3.8169  -11.1811   20.4835 H   0  0  0  0  0  0  0  0  0  0  0  0
   -2.4128   -8.8404   20.6382 H   0  0  0  0  0  0  0  0  0  0  0  0
   -2.5120   -7.5419   17.2946 H   0  0  0  0  0  0  0  0  0  0  0  0
   -1.7028   -5.7050   18.6989 H   0  0  0  0  0  0  0  0  0  0  0  0
   -1.2581   -6.8688   19.9700 H   0  0  0  0  0  0  0  0  0  0  0  0
   -2.9441   -6.6746   19.4789 H   0  0  0  0  0  0  0  0  0  0  0  0
    0.1348   -8.6062   17.1763 H   0  0  0  0  0  0  0  0  0  0  0  0
   -0.6552   -7.4052   16.1646 H   0  0  0  0  0  0  0  0  0  0  0  0
    1.1028   -6.3848   15.6102 H   0  0  0  0  0  0  0  0  0  0  0  0
    2.8532   -4.7461   17.3883 H   0  0  0  0  0  0  0  0  0  0  0  0
    3.8219   -7.0378   17.1611 H   0  0  0  0  0  0  0  0  0  0  0  0
    4.9300   -5.8250   16.5415 H   0  0  0  0  0  0  0  0  0  0  0  0
    3.9724   -6.8022   15.4167 H   0  0  0  0  0  0  0  0  0  0  0  0
    2.9684   -4.5622   14.2926 H   0  0  0  0  0  0  0  0  0  0  0  0
    2.2408   -3.3725   15.3833 H   0  0  0  0  0  0  0  0  0  0  0  0
    5.1054   -4.0788   15.2709 H   0  0  0  0  0  0  0  0  0  0  0  0
    4.8227   -2.4370   13.5773 H   0  0  0  0  0  0  0  0  0  0  0  0
    3.9145   -1.4483   14.7430 H   0  0  0  0  0  0  0  0  0  0  0  0
    7.5572   -2.4922   13.8487 H   0  0  0  0  0  0  0  0  0  0  0  0
    9.4212   -1.1426   15.0460 H   0  0  0  0  0  0  0  0  0  0  0  0
    5.3504   -0.3363   16.9095 H   0  0  0  0  0  0  0  0  0  0  0  0
  1  2  1  0
  2  3  1  0
  3  4  2  0
  4  5  1  0
  5  6  2  0
  6  7  1  0
  7  8  1  0
  8  9  1  0
  8 10  1  0
 10 11  1  0
 11 12  2  0
 11 13  1  0
 13 14  1  0
 14 15  1  0
 14 16  1  0
 16 17  1  0
 17 18  1  0
 18 19  1  0
 19 20  1  0
 20 21  2  0
 21 22  1  0
 22 23  1  0
  7  3  1  0
 23 19  2  0
  1 24  1  0
  1 25  1  0
  1 26  1  0
  2 27  1  0
  2 28  1  0
  5 29  1  0
  6 30  1  0
  8 31  1  0
  9 32  1  0
  9 33  1  0
  9 34  1  0
 10 35  1  0
 10 36  1  0
 13 37  1  0
 14 38  1  0
 15 39  1  0
 15 40  1  0
 15 41  1  0
 16 42  1  0
 16 43  1  0
 17 44  1  0
 18 45  1  0
 18 46  1  0
 20 47  1  0
 21 48  1  0
 23 49  1  0
M  END
>  <Energy>  (1239) 
41.915134055903259

>  <compound_id>  (1239) 
8221

>  <target_id>  (1239) 
1

>  <reference_id>  (1239) 
64

>  <inspiration_ids>  (1239) 
[64, 120]

>  <energy_score>  (1239) 
-13.04802077471129

>  <distance_score>  (1239) 
14.665401463630756

>  <path>  (1239) 
/opt/xchem-fragalysis-2/maxwin/BulkDock/SCRATCH/511017/C8221-P64/C8221-P64.minimised.mol

>  <scratch_subdir>  (1239) 
/opt/xchem-fragalysis-2/maxwin/BulkDock/SCRATCH/511017/C8221-P64

>  <fragmenstein_runtime>  (1239) 
48.9568076133728

>  <fragmenstein_outcome>  (1239) 
too moved

>  <fragmenstein_mode>  (1239) 
expansion

>  <fragmenstein_error>  (1239) 


$$$$
C8221-P120
     RDKit          3D

 49 50  0  0  0  0  0  0  0  0999 V2000
   -2.4647  -15.3471   24.3295 C   0  0  0  0  0  0  0  0  0  0  0  0
   -1.2684  -14.8101   23.3380 C   0  0  0  0  0  0  0  0  0  0  0  0
   -0.1766  -13.5676   23.0344 C   0  0  0  0  0  0  0  0  0  0  0  0
    0.8954  -14.0189   23.7111 N   0  0  0  0  0  0  0  0  0  0  0  0
    1.7155  -13.0394   24.7418 C   0  0  0  0  0  0  0  0  0  0  0  0
    1.9682  -12.1848   23.7804 C   0  0  0  0  0  0  0  0  0  0  0  0
    0.5291  -11.7758   22.7717 N   0  0  0  0  0  0  0  0  0  0  0  0
    1.2484  -10.5025   21.6898 C   0  0  0  0  0  0  0  0  0  0  0  0
    3.1312  -10.7536   22.6191 C   0  0  0  0  0  0  0  0  0  0  0  0
    1.4568   -8.7876   20.6411 C   0  0  0  0  0  0  0  0  0  0  0  0
    2.3996   -7.3267   19.6342 C   0  0  0  0  0  0  0  0  0  0  0  0
    1.9112   -6.2583   19.9216 O   0  0  0  0  0  0  0  0  0  0  0  0
    3.8324   -7.4971   18.5907 N   0  0  0  0  0  0  0  0  0  0  0  0
    4.9733   -6.2015   17.8264 C   0  0  0  0  0  0  0  0  0  0  0  0
    5.6145   -5.9177   19.2233 C   0  0  0  0  0  0  0  0  0  0  0  0
    6.5184   -5.9529   16.5406 C   0  0  0  0  0  0  0  0  0  0  0  0
    7.8555   -4.5753   15.9889 N   0  0  0  0  0  0  0  0  0  0  0  0
    9.4282   -3.9456   15.1661 C   0  0  0  0  0  0  0  0  0  0  0  0
    9.6840   -2.4102   15.1132 C   0  0  0  0  0  0  0  0  0  0  0  0
    8.7551   -1.3332   15.2713 C   0  0  0  0  0  0  0  0  0  0  0  0
    9.3867   -0.1139   15.3917 C   0  0  0  0  0  0  0  0  0  0  0  0
   11.0769   -0.2238   15.2070 S   0  0  0  0  0  0  0  0  0  0  0  0
   10.9841   -1.9133   15.0311 C   0  0  0  0  0  0  0  0  0  0  0  0
   -2.4715  -16.3478   24.7247 H   0  0  0  0  0  0  0  0  0  0  0  0
   -3.4227  -15.2663   23.8175 H   0  0  0  0  0  0  0  0  0  0  0  0
   -2.4076  -14.7448   25.2526 H   0  0  0  0  0  0  0  0  0  0  0  0
   -1.0223  -15.0915   22.3239 H   0  0  0  0  0  0  0  0  0  0  0  0
   -0.7554  -14.8636   24.2292 H   0  0  0  0  0  0  0  0  0  0  0  0
    1.3576  -13.1029   25.7796 H   0  0  0  0  0  0  0  0  0  0  0  0
    2.6132  -12.7639   23.1394 H   0  0  0  0  0  0  0  0  0  0  0  0
    0.3108   -9.9941   22.0770 H   0  0  0  0  0  0  0  0  0  0  0  0
    3.4443   -9.9643   23.2331 H   0  0  0  0  0  0  0  0  0  0  0  0
    4.1346  -10.9829   22.0826 H   0  0  0  0  0  0  0  0  0  0  0  0
    3.5595  -11.6999   22.9038 H   0  0  0  0  0  0  0  0  0  0  0  0
    0.4315   -8.6107   20.2803 H   0  0  0  0  0  0  0  0  0  0  0  0
    1.4764   -8.1826   21.5728 H   0  0  0  0  0  0  0  0  0  0  0  0
    4.1021   -8.4676   18.5622 H   0  0  0  0  0  0  0  0  0  0  0  0
    4.2441   -5.4376   17.5368 H   0  0  0  0  0  0  0  0  0  0  0  0
    6.1210   -6.8216   19.5820 H   0  0  0  0  0  0  0  0  0  0  0  0
    6.3444   -5.1219   19.2631 H   0  0  0  0  0  0  0  0  0  0  0  0
    4.8411   -5.6609   19.9561 H   0  0  0  0  0  0  0  0  0  0  0  0
    6.1759   -6.4782   15.6556 H   0  0  0  0  0  0  0  0  0  0  0  0
    7.0622   -6.4710   17.2826 H   0  0  0  0  0  0  0  0  0  0  0  0
    7.3610   -3.6843   15.6922 H   0  0  0  0  0  0  0  0  0  0  0  0
   10.2379   -4.0318   15.9611 H   0  0  0  0  0  0  0  0  0  0  0  0
   10.0558   -4.5984   14.5402 H   0  0  0  0  0  0  0  0  0  0  0  0
    7.6790   -1.4396   15.3041 H   0  0  0  0  0  0  0  0  0  0  0  0
    8.9319    0.8524   15.5425 H   0  0  0  0  0  0  0  0  0  0  0  0
   11.8927   -2.4856   14.9003 H   0  0  0  0  0  0  0  0  0  0  0  0
  1  2  1  0
  2  3  1  0
  3  4  2  0
  4  5  1  0
  5  6  2  0
  6  7  1  0
  7  8  1  0
  8  9  1  0
  8 10  1  0
 10 11  1  0
 11 12  2  0
 11 13  1  0
 13 14  1  0
 14 15  1  0
 14 16  1  0
 16 17  1  0
 17 18  1  0
 18 19  1  0
 19 20  1  0
 20 21  2  0
 21 22  1  0
 22 23  1  0
  7  3  1  0
 23 19  2  0
  1 24  1  0
  1 25  1  0
  1 26  1  0
  2 27  1  0
  2 28  1  0
  5 29  1  0
  6 30  1  0
  8 31  1  0
  9 32  1  0
  9 33  1  0
  9 34  1  0
 10 35  1  0
 10 36  1  0
 13 37  1  0
 14 38  1  0
 15 39  1  0
 15 40  1  0
 15 41  1  0
 16 42  1  0
 16 43  1  0
 17 44  1  0
 18 45  1  0
 18 46  1  0
 20 47  1  0
 21 48  1  0
 23 49  1  0
M  END
>  <Energy>  (1240) 
1275.2925290078754

>  <compound_id>  (1240) 
8221

>  <target_id>  (1240) 
1

>  <reference_id>  (1240) 
120

>  <inspiration_ids>  (1240) 
[64, 120]

>  <energy_score>  (1240) 
1220.32937417726

>  <distance_score>  (1240) 
13.561334738816774

>  <path>  (1240) 
/opt/xchem-fragalysis-2/maxwin/BulkDock/SCRATCH/511017/C8221-P120/C8221-P120.minimised.mol

>  <scratch_subdir>  (1240) 
/opt/xchem-fragalysis-2/maxwin/BulkDock/SCRATCH/511017/C8221-P120

>  <fragmenstein_runtime>  (1240) 
13.343395709991455

>  <fragmenstein_outcome>  (1240) 
too moved

>  <fragmenstein_mode>  (1240) 
expansion

>  <fragmenstein_error>  (1240) 


$$$$
C8226-P64
     RDKit          3D

 45 46  0  0  0  0  0  0  0  0999 V2000
    1.8007  -17.1539   18.7230 C   0  0  0  0  0  0  0  0  0  0  0  0
    2.6155  -16.1450   17.8660 C   0  0  0  0  0  0  0  0  0  0  0  0
    3.7972  -15.4656   18.5562 C   0  0  0  0  0  0  0  0  0  0  0  0
    3.9950  -15.8836   19.8634 N   0  0  0  0  0  0  0  0  0  0  0  0
    4.9151  -15.0999   20.3460 C   0  0  0  0  0  0  0  0  0  0  0  0
    5.3994  -14.2460   19.3985 N   0  0  0  0  0  0  0  0  0  0  0  0
    4.7662  -14.4514   18.1863 C   0  0  0  0  0  0  0  0  0  0  0  0
    5.0504  -13.5892   16.9334 C   0  0  0  0  0  0  0  0  0  0  0  0
    4.4125  -13.8400   16.0084 O   0  0  0  0  0  0  0  0  0  0  0  0
    6.2050  -12.3494   17.2496 N   0  0  0  0  0  0  0  0  0  0  0  0
    6.4157  -11.3604   16.3741 C   0  0  0  0  0  0  0  0  0  0  0  0
    6.2670  -12.1285   14.6832 C   0  0  0  0  0  0  0  0  0  0  0  0
    7.1022  -10.9034   16.2197 C   0  0  0  0  0  0  0  0  0  0  0  0
    8.7468  -10.8074   15.3849 C   0  0  0  0  0  0  0  0  0  0  0  0
    9.7892   -9.5339   15.5320 N   0  0  0  0  0  0  0  0  0  0  0  0
    9.5768   -7.8650   15.2006 C   0  0  0  0  0  0  0  0  0  0  0  0
    8.5990   -7.3440   14.7035 O   0  0  0  0  0  0  0  0  0  0  0  0
   11.1311   -6.6349   15.7263 C   0  0  0  0  0  0  0  0  0  0  0  0
   11.5127   -4.8403   15.9914 C   0  0  0  0  0  0  0  0  0  0  0  0
   12.6000   -4.4357   16.8737 C   0  0  0  0  0  0  0  0  0  0  0  0
   12.8941   -3.0925   16.8204 C   0  0  0  0  0  0  0  0  0  0  0  0
   11.9134   -2.2734   15.6990 S   0  0  0  0  0  0  0  0  0  0  0  0
   11.0938   -3.7192   15.2879 C   0  0  0  0  0  0  0  0  0  0  0  0
    2.4452  -17.9562   19.0964 H   0  0  0  0  0  0  0  0  0  0  0  0
    1.3245  -16.6665   19.5732 H   0  0  0  0  0  0  0  0  0  0  0  0
    1.0146  -17.6047   18.1091 H   0  0  0  0  0  0  0  0  0  0  0  0
    1.9413  -15.3644   17.4956 H   0  0  0  0  0  0  0  0  0  0  0  0
    3.0073  -16.6745   16.9894 H   0  0  0  0  0  0  0  0  0  0  0  0
    5.2813  -15.1014   21.3633 H   0  0  0  0  0  0  0  0  0  0  0  0
    6.1138  -13.5474   19.5429 H   0  0  0  0  0  0  0  0  0  0  0  0
    5.2522  -11.3026   16.0191 H   0  0  0  0  0  0  0  0  0  0  0  0
    5.6366  -10.5425   17.0587 H   0  0  0  0  0  0  0  0  0  0  0  0
    6.9776  -12.9621   14.6335 H   0  0  0  0  0  0  0  0  0  0  0  0
    6.4878  -11.3694   13.9221 H   0  0  0  0  0  0  0  0  0  0  0  0
    5.2580  -12.4949   14.4819 H   0  0  0  0  0  0  0  0  0  0  0  0
    6.6072   -9.7831   15.7592 H   0  0  0  0  0  0  0  0  0  0  0  0
    7.7145  -10.4973   17.2168 H   0  0  0  0  0  0  0  0  0  0  0  0
    8.5707  -10.8760   14.3087 H   0  0  0  0  0  0  0  0  0  0  0  0
    9.3153  -11.6754   15.7343 H   0  0  0  0  0  0  0  0  0  0  0  0
   10.7336   -9.6910   15.8692 H   0  0  0  0  0  0  0  0  0  0  0  0
   12.1163   -7.1251   15.8915 H   0  0  0  0  0  0  0  0  0  0  0  0
   10.9543   -6.4564   16.7176 H   0  0  0  0  0  0  0  0  0  0  0  0
   13.1587   -5.1073   17.5048 H   0  0  0  0  0  0  0  0  0  0  0  0
   13.6524   -2.5598   17.3771 H   0  0  0  0  0  0  0  0  0  0  0  0
   10.3619   -3.6405   14.5168 H   0  0  0  0  0  0  0  0  0  0  0  0
  1  2  1  0
  2  3  1  0
  3  4  1  0
  4  5  2  0
  5  6  1  0
  6  7  1  0
  7  8  1  0
  8  9  2  0
  8 10  1  0
 10 11  1  0
 11 12  1  0
 10 13  1  0
 13 14  1  0
 14 15  1  0
 15 16  1  0
 16 17  2  0
 16 18  1  0
 18 19  1  0
 19 20  1  0
 20 21  2  0
 21 22  1  0
 22 23  1  0
  7  3  2  0
 23 19  2  0
  1 24  1  0
  1 25  1  0
  1 26  1  0
  2 27  1  0
  2 28  1  0
  5 29  1  0
  6 30  1  0
 11 31  1  0
 11 32  1  0
 12 33  1  0
 12 34  1  0
 12 35  1  0
 13 36  1  0
 13 37  1  0
 14 38  1  0
 14 39  1  0
 15 40  1  0
 18 41  1  0
 18 42  1  0
 20 43  1  0
 21 44  1  0
 23 45  1  0
M  END
>  <Energy>  (1241) 
991.41865412734865

>  <compound_id>  (1241) 
8226

>  <target_id>  (1241) 
1

>  <reference_id>  (1241) 
64

>  <inspiration_ids>  (1241) 
[64, 120]

>  <energy_score>  (1241) 
942.0389954969799

>  <distance_score>  (1241) 
14.780260573297921

>  <path>  (1241) 
/opt/xchem-fragalysis-2/maxwin/BulkDock/SCRATCH/511017/C8226-P64/C8226-P64.minimised.mol

>  <scratch_subdir>  (1241) 
/opt/xchem-fragalysis-2/maxwin/BulkDock/SCRATCH/511017/C8226-P64

>  <fragmenstein_runtime>  (1241) 
29.744335889816284

>  <fragmenstein_outcome>  (1241) 
too moved

>  <fragmenstein_mode>  (1241) 
expansion

>  <fragmenstein_error>  (1241) 


$$$$
C8226-P120
     RDKit          3D

 45 46  0  0  0  0  0  0  0  0999 V2000
   -8.7874  -16.3038   26.3440 C   0  0  0  0  0  0  0  0  0  0  0  0
   -8.9878  -15.2067   25.2994 C   0  0  0  0  0  0  0  0  0  0  0  0
   -8.9220  -15.6392   23.8604 C   0  0  0  0  0  0  0  0  0  0  0  0
   -9.1115  -16.9809   23.5550 N   0  0  0  0  0  0  0  0  0  0  0  0
   -8.9863  -17.0630   22.2555 C   0  0  0  0  0  0  0  0  0  0  0  0
   -8.7564  -15.8381   21.6990 N   0  0  0  0  0  0  0  0  0  0  0  0
   -8.7336  -14.8721   22.6888 C   0  0  0  0  0  0  0  0  0  0  0  0
   -8.6306  -13.3991   22.4298 C   0  0  0  0  0  0  0  0  0  0  0  0
   -8.8691  -12.6615   23.2877 O   0  0  0  0  0  0  0  0  0  0  0  0
   -8.2800  -13.1751   20.8787 N   0  0  0  0  0  0  0  0  0  0  0  0
   -8.2596  -12.1533   20.0687 C   0  0  0  0  0  0  0  0  0  0  0  0
  -10.0874  -12.1344   19.9801 C   0  0  0  0  0  0  0  0  0  0  0  0
   -7.9756  -11.3787   20.0886 C   0  0  0  0  0  0  0  0  0  0  0  0
   -6.6263  -10.6263   20.9275 C   0  0  0  0  0  0  0  0  0  0  0  0
   -5.2981  -10.4867   20.3019 N   0  0  0  0  0  0  0  0  0  0  0  0
   -4.6792   -9.3501   19.5876 C   0  0  0  0  0  0  0  0  0  0  0  0
   -5.1357   -8.2866   19.2693 O   0  0  0  0  0  0  0  0  0  0  0  0
   -3.1551   -9.6659   19.3087 C   0  0  0  0  0  0  0  0  0  0  0  0
   -2.1691   -8.5216   18.9106 C   0  0  0  0  0  0  0  0  0  0  0  0
   -1.5876   -8.3425   17.5930 C   0  0  0  0  0  0  0  0  0  0  0  0
   -0.5925   -7.3851   17.5405 C   0  0  0  0  0  0  0  0  0  0  0  0
   -0.3370   -6.6572   19.0608 S   0  0  0  0  0  0  0  0  0  0  0  0
   -1.5555   -7.6331   19.7866 C   0  0  0  0  0  0  0  0  0  0  0  0
   -7.8488  -16.8398   26.1806 H   0  0  0  0  0  0  0  0  0  0  0  0
   -8.7527  -15.8619   27.3453 H   0  0  0  0  0  0  0  0  0  0  0  0
   -9.6211  -17.0038   26.3266 H   0  0  0  0  0  0  0  0  0  0  0  0
   -8.2233  -14.4374   25.4619 H   0  0  0  0  0  0  0  0  0  0  0  0
   -9.9594  -14.7282   25.4706 H   0  0  0  0  0  0  0  0  0  0  0  0
   -9.0534  -17.9658   21.6630 H   0  0  0  0  0  0  0  0  0  0  0  0
   -8.6540  -15.6363   20.7144 H   0  0  0  0  0  0  0  0  0  0  0  0
   -7.4104  -12.9054   19.4631 H   0  0  0  0  0  0  0  0  0  0  0  0
   -8.6230  -12.6098   18.9340 H   0  0  0  0  0  0  0  0  0  0  0  0
  -10.4002  -11.4534   19.1781 H   0  0  0  0  0  0  0  0  0  0  0  0
  -10.4830  -11.7775   20.9402 H   0  0  0  0  0  0  0  0  0  0  0  0
  -10.4651  -13.1499   19.7993 H   0  0  0  0  0  0  0  0  0  0  0  0
   -8.7371  -10.5071   20.5212 H   0  0  0  0  0  0  0  0  0  0  0  0
   -7.5953  -11.0438   18.9179 H   0  0  0  0  0  0  0  0  0  0  0  0
   -6.5223  -11.1763   21.8613 H   0  0  0  0  0  0  0  0  0  0  0  0
   -6.9534   -9.6028   21.1462 H   0  0  0  0  0  0  0  0  0  0  0  0
   -4.5913  -11.1958   20.4760 H   0  0  0  0  0  0  0  0  0  0  0  0
   -3.1350  -10.4213   18.5127 H   0  0  0  0  0  0  0  0  0  0  0  0
   -2.7394  -10.1322   20.2122 H   0  0  0  0  0  0  0  0  0  0  0  0
   -1.8700   -8.9351   16.7325 H   0  0  0  0  0  0  0  0  0  0  0  0
   -0.0038   -7.0884   16.6850 H   0  0  0  0  0  0  0  0  0  0  0  0
   -1.7316   -7.5405   20.8500 H   0  0  0  0  0  0  0  0  0  0  0  0
  1  2  1  0
  2  3  1  0
  3  4  1  0
  4  5  2  0
  5  6  1  0
  6  7  1  0
  7  8  1  0
  8  9  2  0
  8 10  1  0
 10 11  1  0
 11 12  1  0
 10 13  1  0
 13 14  1  0
 14 15  1  0
 15 16  1  0
 16 17  2  0
 16 18  1  0
 18 19  1  0
 19 20  1  0
 20 21  2  0
 21 22  1  0
 22 23  1  0
  7  3  2  0
 23 19  2  0
  1 24  1  0
  1 25  1  0
  1 26  1  0
  2 27  1  0
  2 28  1  0
  5 29  1  0
  6 30  1  0
 11 31  1  0
 11 32  1  0
 12 33  1  0
 12 34  1  0
 12 35  1  0
 13 36  1  0
 13 37  1  0
 14 38  1  0
 14 39  1  0
 15 40  1  0
 18 41  1  0
 18 42  1  0
 20 43  1  0
 21 44  1  0
 23 45  1  0
M  END
>  <Energy>  (1242) 
788.07525961770148

>  <compound_id>  (1242) 
8226

>  <target_id>  (1242) 
1

>  <reference_id>  (1242) 
120

>  <inspiration_ids>  (1242) 
[64, 120]

>  <energy_score>  (1242) 
738.6956009873229

>  <distance_score>  (1242) 
18.500090648127934

>  <path>  (1242) 
/opt/xchem-fragalysis-2/maxwin/BulkDock/SCRATCH/511017/C8226-P120/C8226-P120.minimised.mol

>  <scratch_subdir>  (1242) 
/opt/xchem-fragalysis-2/maxwin/BulkDock/SCRATCH/511017/C8226-P120

>  <fragmenstein_runtime>  (1242) 
20.01807951927185

>  <fragmenstein_outcome>  (1242) 
too moved

>  <fragmenstein_mode>  (1242) 
expansion

>  <fragmenstein_error>  (1242) 


$$$$
C75198-P40
     RDKit          3D

 48 50  0  0  0  0  0  0  0  0999 V2000
  -13.2141  -20.8730   32.1577 C   0  0  0  0  0  0  0  0  0  0  0  0
  -12.1051  -20.9848   31.2428 C   0  0  0  0  0  0  0  0  0  0  0  0
  -12.9121  -21.1610   29.9865 C   0  0  0  0  0  0  0  0  0  0  0  0
  -10.4799  -19.9673   31.9019 C   0  0  0  0  0  0  0  0  0  0  0  0
   -9.1877  -18.7435   33.2504 C   0  0  0  0  0  0  0  0  0  0  0  0
   -8.1773  -16.9951   32.6223 N   0  0  0  0  0  0  0  0  0  0  0  0
   -6.3495  -16.5858   32.2866 C   0  0  0  0  0  0  0  0  0  0  0  0
   -5.6884  -17.4645   32.6024 O   0  0  0  0  0  0  0  0  0  0  0  0
   -5.8023  -14.7266   31.2518 C   0  0  0  0  0  0  0  0  0  0  0  0
   -4.8847  -13.3661   29.8484 C   0  0  0  0  0  0  0  0  0  0  0  0
   -4.8520  -12.1109   28.8948 C   0  0  0  0  0  0  0  0  0  0  0  0
   -3.2320  -11.9252   28.2957 N   0  0  0  0  0  0  0  0  0  0  0  0
   -2.3976  -11.5676   29.3211 C   0  0  0  0  0  0  0  0  0  0  0  0
   -1.1755  -10.4375   29.7232 C   0  0  0  0  0  0  0  0  0  0  0  0
   -0.9808   -9.4647   30.7814 C   0  0  0  0  0  0  0  0  0  0  0  0
   -2.0382   -9.2616   31.5711 C   0  0  0  0  0  0  0  0  0  0  0  0
   -3.2510  -10.0078   30.9917 C   0  0  0  0  0  0  0  0  0  0  0  0
   -3.6186  -11.6209   29.9149 C   0  0  0  0  0  0  0  0  0  0  0  0
  -10.6723  -20.5330   30.0121 N   0  0  0  0  0  0  0  0  0  0  0  0
  -10.8870  -21.6125   28.8114 C   0  0  0  0  0  0  0  0  0  0  0  0
  -11.6918  -21.4762   27.7336 N   0  0  0  0  0  0  0  0  0  0  0  0
  -11.9411  -22.4793   26.8473 C   0  0  0  0  0  0  0  0  0  0  0  0
  -11.3863  -23.7007   26.9151 C   0  0  0  0  0  0  0  0  0  0  0  0
  -10.5628  -23.7882   27.9711 C   0  0  0  0  0  0  0  0  0  0  0  0
  -10.4154  -22.8308   28.9300 N   0  0  0  0  0  0  0  0  0  0  0  0
  -14.2857  -20.2438   32.5987 H   0  0  0  0  0  0  0  0  0  0  0  0
  -14.3285  -21.1569   31.8013 H   0  0  0  0  0  0  0  0  0  0  0  0
  -12.7191  -20.0853   32.7413 H   0  0  0  0  0  0  0  0  0  0  0  0
  -11.6780  -22.0239   31.3223 H   0  0  0  0  0  0  0  0  0  0  0  0
  -12.9158  -20.3052   29.3226 H   0  0  0  0  0  0  0  0  0  0  0  0
  -13.9177  -21.4694   30.2088 H   0  0  0  0  0  0  0  0  0  0  0  0
  -12.6438  -22.1268   29.6104 H   0  0  0  0  0  0  0  0  0  0  0  0
  -10.0131  -21.0040   32.1693 H   0  0  0  0  0  0  0  0  0  0  0  0
   -8.4439  -19.2927   33.8550 H   0  0  0  0  0  0  0  0  0  0  0  0
   -9.9053  -18.2827   33.9474 H   0  0  0  0  0  0  0  0  0  0  0  0
   -8.7298  -16.1556   32.4093 H   0  0  0  0  0  0  0  0  0  0  0  0
   -5.6796  -15.3876   30.3739 H   0  0  0  0  0  0  0  0  0  0  0  0
   -6.7592  -14.2038   31.2360 H   0  0  0  0  0  0  0  0  0  0  0  0
   -5.5931  -11.8415   28.1281 H   0  0  0  0  0  0  0  0  0  0  0  0
   -3.1168  -11.8648   27.2911 H   0  0  0  0  0  0  0  0  0  0  0  0
   -0.5608  -10.1543   28.8674 H   0  0  0  0  0  0  0  0  0  0  0  0
   -0.1846   -8.7267   30.7520 H   0  0  0  0  0  0  0  0  0  0  0  0
   -2.1503   -8.4378   32.2628 H   0  0  0  0  0  0  0  0  0  0  0  0
   -4.0676   -9.2534   31.3730 H   0  0  0  0  0  0  0  0  0  0  0  0
  -10.4127  -21.4645   30.3214 H   0  0  0  0  0  0  0  0  0  0  0  0
  -12.5643  -22.2349   26.0012 H   0  0  0  0  0  0  0  0  0  0  0  0
  -11.5468  -24.4982   26.2185 H   0  0  0  0  0  0  0  0  0  0  0  0
  -10.0142  -24.7002   28.1436 H   0  0  0  0  0  0  0  0  0  0  0  0
  1  2  1  0
  2  3  1  0
  2  4  1  0
  4  5  1  0
  5  6  1  0
  6  7  1  0
  7  8  2  0
  7  9  1  0
  9 10  1  0
 10 11  2  0
 11 12  1  0
 12 13  1  0
 13 14  2  0
 14 15  1  0
 15 16  2  0
 16 17  1  0
 17 18  2  0
  4 19  1  0
 19 20  1  0
 20 21  2  0
 21 22  1  0
 22 23  2  0
 23 24  1  0
 24 25  2  0
 18 10  1  0
 25 20  1  0
 18 13  1  0
  1 26  1  0
  1 27  1  0
  1 28  1  0
  2 29  1  0
  3 30  1  0
  3 31  1  0
  3 32  1  0
  4 33  1  0
  5 34  1  0
  5 35  1  0
  6 36  1  0
  9 37  1  0
  9 38  1  0
 11 39  1  0
 12 40  1  0
 14 41  1  0
 15 42  1  0
 16 43  1  0
 17 44  1  0
 19 45  1  0
 22 46  1  0
 23 47  1  0
 24 48  1  0
M  END
>  <Energy>  (1243) 
1751.5523593227199

>  <compound_id>  (1243) 
75198

>  <target_id>  (1243) 
1

>  <reference_id>  (1243) 
40

>  <inspiration_ids>  (1243) 
[40, 54]

>  <energy_score>  (1243) 
1736.0191790397475

>  <distance_score>  (1243) 
5.313680879612236

>  <path>  (1243) 
/opt/xchem-fragalysis-2/maxwin/BulkDock/SCRATCH/511017/C75198-P40/C75198-P40.minimised.mol

>  <scratch_subdir>  (1243) 
/opt/xchem-fragalysis-2/maxwin/BulkDock/SCRATCH/511017/C75198-P40

>  <fragmenstein_runtime>  (1243) 
14.157335758209229

>  <fragmenstein_outcome>  (1243) 
too moved

>  <fragmenstein_mode>  (1243) 
expansion

>  <fragmenstein_error>  (1243) 


$$$$
C75198-P54
     RDKit          3D

 48 50  0  0  0  0  0  0  0  0999 V2000
  -12.6931  -12.3207   35.0240 C   0  0  0  0  0  0  0  0  0  0  0  0
  -12.5732  -13.8278   35.2770 C   0  0  0  0  0  0  0  0  0  0  0  0
  -13.9976  -14.4050   35.3591 C   0  0  0  0  0  0  0  0  0  0  0  0
  -11.7110  -14.5865   34.1997 C   0  0  0  0  0  0  0  0  0  0  0  0
  -10.3355  -13.8002   33.9265 C   0  0  0  0  0  0  0  0  0  0  0  0
  -10.3825  -12.6242   33.0108 N   0  0  0  0  0  0  0  0  0  0  0  0
   -9.4008  -11.5534   32.7640 C   0  0  0  0  0  0  0  0  0  0  0  0
   -8.3524  -11.3175   33.2975 O   0  0  0  0  0  0  0  0  0  0  0  0
   -9.9526  -10.5673   31.6743 C   0  0  0  0  0  0  0  0  0  0  0  0
   -8.9835   -9.6894   30.8554 C   0  0  0  0  0  0  0  0  0  0  0  0
   -8.5774   -9.9350   29.5497 C   0  0  0  0  0  0  0  0  0  0  0  0
   -7.8379   -8.8737   29.0840 N   0  0  0  0  0  0  0  0  0  0  0  0
   -7.7513   -7.8962   30.0479 C   0  0  0  0  0  0  0  0  0  0  0  0
   -7.0765   -6.6614   30.0252 C   0  0  0  0  0  0  0  0  0  0  0  0
   -7.0730   -5.8965   31.1910 C   0  0  0  0  0  0  0  0  0  0  0  0
   -7.7496   -6.3387   32.3228 C   0  0  0  0  0  0  0  0  0  0  0  0
   -8.4304   -7.5684   32.3272 C   0  0  0  0  0  0  0  0  0  0  0  0
   -8.4327   -8.3836   31.1752 C   0  0  0  0  0  0  0  0  0  0  0  0
  -11.4794  -15.9759   34.6980 N   0  0  0  0  0  0  0  0  0  0  0  0
  -11.7868  -17.0822   33.9084 C   0  0  0  0  0  0  0  0  0  0  0  0
  -10.9300  -17.5230   32.9901 N   0  0  0  0  0  0  0  0  0  0  0  0
  -11.1248  -18.7612   32.4782 C   0  0  0  0  0  0  0  0  0  0  0  0
  -12.1700  -19.5735   32.8058 C   0  0  0  0  0  0  0  0  0  0  0  0
  -13.0461  -19.0137   33.6926 C   0  0  0  0  0  0  0  0  0  0  0  0
  -12.8881  -17.7778   34.2333 N   0  0  0  0  0  0  0  0  0  0  0  0
  -13.3905  -11.8605   35.7330 H   0  0  0  0  0  0  0  0  0  0  0  0
  -13.0609  -12.1153   34.0132 H   0  0  0  0  0  0  0  0  0  0  0  0
  -11.7341  -11.8133   35.1614 H   0  0  0  0  0  0  0  0  0  0  0  0
  -12.1023  -13.9612   36.2605 H   0  0  0  0  0  0  0  0  0  0  0  0
  -14.5127  -14.3201   34.3962 H   0  0  0  0  0  0  0  0  0  0  0  0
  -14.5914  -13.8665   36.1060 H   0  0  0  0  0  0  0  0  0  0  0  0
  -14.0007  -15.4577   35.6526 H   0  0  0  0  0  0  0  0  0  0  0  0
  -12.3374  -14.6139   33.3059 H   0  0  0  0  0  0  0  0  0  0  0  0
   -9.6132  -14.4768   33.4617 H   0  0  0  0  0  0  0  0  0  0  0  0
   -9.8854  -13.4701   34.8695 H   0  0  0  0  0  0  0  0  0  0  0  0
  -11.1167  -12.5689   32.3149 H   0  0  0  0  0  0  0  0  0  0  0  0
  -10.5390  -11.1487   30.9509 H   0  0  0  0  0  0  0  0  0  0  0  0
  -10.6563   -9.9008   32.1895 H   0  0  0  0  0  0  0  0  0  0  0  0
   -8.7663  -10.7766   28.8983 H   0  0  0  0  0  0  0  0  0  0  0  0
   -7.3973   -8.8307   28.1738 H   0  0  0  0  0  0  0  0  0  0  0  0
   -6.5540   -6.3208   29.1401 H   0  0  0  0  0  0  0  0  0  0  0  0
   -6.5380   -4.9525   31.2193 H   0  0  0  0  0  0  0  0  0  0  0  0
   -7.7405   -5.7364   33.2278 H   0  0  0  0  0  0  0  0  0  0  0  0
   -8.9220   -7.9102   33.2333 H   0  0  0  0  0  0  0  0  0  0  0  0
  -12.0391  -16.1582   35.5225 H   0  0  0  0  0  0  0  0  0  0  0  0
  -10.3788  -19.0690   31.7640 H   0  0  0  0  0  0  0  0  0  0  0  0
  -12.2945  -20.5653   32.4012 H   0  0  0  0  0  0  0  0  0  0  0  0
  -13.9223  -19.5595   34.0321 H   0  0  0  0  0  0  0  0  0  0  0  0
  1  2  1  0
  2  3  1  0
  2  4  1  0
  4  5  1  0
  5  6  1  0
  6  7  1  0
  7  8  2  0
  7  9  1  0
  9 10  1  0
 10 11  2  0
 11 12  1  0
 12 13  1  0
 13 14  2  0
 14 15  1  0
 15 16  2  0
 16 17  1  0
 17 18  2  0
  4 19  1  0
 19 20  1  0
 20 21  2  0
 21 22  1  0
 22 23  2  0
 23 24  1  0
 24 25  2  0
 18 10  1  0
 25 20  1  0
 18 13  1  0
  1 26  1  0
  1 27  1  0
  1 28  1  0
  2 29  1  0
  3 30  1  0
  3 31  1  0
  3 32  1  0
  4 33  1  0
  5 34  1  0
  5 35  1  0
  6 36  1  0
  9 37  1  0
  9 38  1  0
 11 39  1  0
 12 40  1  0
 14 41  1  0
 15 42  1  0
 16 43  1  0
 17 44  1  0
 19 45  1  0
 22 46  1  0
 23 47  1  0
 24 48  1  0
M  END
>  <Energy>  (1244) 
-9.8753466042692821

>  <compound_id>  (1244) 
75198

>  <target_id>  (1244) 
1

>  <reference_id>  (1244) 
54

>  <inspiration_ids>  (1244) 
[40, 54]

>  <energy_score>  (1244) 
-25.40852688723828

>  <distance_score>  (1244) 
8.840344559285931

>  <path>  (1244) 
/opt/xchem-fragalysis-2/maxwin/BulkDock/SCRATCH/511017/C75198-P54/C75198-P54.minimised.mol

>  <scratch_subdir>  (1244) 
/opt/xchem-fragalysis-2/maxwin/BulkDock/SCRATCH/511017/C75198-P54

>  <fragmenstein_runtime>  (1244) 
28.251585960388184

>  <fragmenstein_outcome>  (1244) 
too moved

>  <fragmenstein_mode>  (1244) 
expansion

>  <fragmenstein_error>  (1244) 


$$$$
C75199-P40
     RDKit          3D

 54 58  0  0  0  0  0  0  0  0999 V2000
   -9.4429  -18.7891   36.2565 O   0  0  0  0  0  0  0  0  0  0  0  0
   -8.6769  -19.0509   35.3628 C   0  0  0  0  0  0  0  0  0  0  0  0
   -8.3380  -18.1639   34.0135 C   0  0  0  0  0  0  0  0  0  0  0  0
   -7.3818  -18.5235   32.7619 C   0  0  0  0  0  0  0  0  0  0  0  0
   -7.7347  -17.9806   31.1676 C   0  0  0  0  0  0  0  0  0  0  0  0
   -8.3058  -18.0257   29.1752 C   0  0  0  0  0  0  0  0  0  0  0  0
   -8.2162  -16.2525   28.4205 C   0  0  0  0  0  0  0  0  0  0  0  0
   -8.6111  -14.6078   29.4793 C   0  0  0  0  0  0  0  0  0  0  0  0
   -8.3619  -14.8026   31.4057 C   0  0  0  0  0  0  0  0  0  0  0  0
   -8.3558  -16.4897   32.3114 C   0  0  0  0  0  0  0  0  0  0  0  0
   -9.0916  -17.0808   33.6266 N   0  0  0  0  0  0  0  0  0  0  0  0
   -7.9423  -20.1950   35.1124 N   0  0  0  0  0  0  0  0  0  0  0  0
   -6.6550  -20.1386   35.7292 C   0  0  0  0  0  0  0  0  0  0  0  0
   -5.7186  -21.2412   34.8378 C   0  0  0  0  0  0  0  0  0  0  0  0
   -6.4069  -22.6878   34.2199 C   0  0  0  0  0  0  0  0  0  0  0  0
   -8.0517  -22.6370   34.1137 C   0  0  0  0  0  0  0  0  0  0  0  0
   -8.2434  -21.2701   33.5220 C   0  0  0  0  0  0  0  0  0  0  0  0
   -9.6892  -20.4263   33.3054 O   0  0  0  0  0  0  0  0  0  0  0  0
  -10.2597  -20.9618   31.6695 C   0  0  0  0  0  0  0  0  0  0  0  0
  -11.3558  -21.7543   31.0991 C   0  0  0  0  0  0  0  0  0  0  0  0
  -10.9426  -23.1945   31.4434 N   0  0  0  0  0  0  0  0  0  0  0  0
  -10.7483  -23.0332   29.5536 C   0  0  0  0  0  0  0  0  0  0  0  0
  -11.5656  -22.2299   28.8287 N   0  0  0  0  0  0  0  0  0  0  0  0
  -11.8216  -22.4299   27.5265 C   0  0  0  0  0  0  0  0  0  0  0  0
  -11.4225  -23.5012   26.8214 C   0  0  0  0  0  0  0  0  0  0  0  0
  -10.5252  -24.2423   27.4919 C   0  0  0  0  0  0  0  0  0  0  0  0
  -10.1752  -24.0087   28.7807 N   0  0  0  0  0  0  0  0  0  0  0  0
   -9.3943  -23.5567   32.6972 C   0  0  0  0  0  0  0  0  0  0  0  0
   -7.9309  -21.5312   35.7770 C   0  0  0  0  0  0  0  0  0  0  0  0
   -6.6593  -19.2968   32.9011 H   0  0  0  0  0  0  0  0  0  0  0  0
   -8.4112  -18.8092   28.4583 H   0  0  0  0  0  0  0  0  0  0  0  0
   -8.4244  -16.1750   27.3398 H   0  0  0  0  0  0  0  0  0  0  0  0
   -8.7940  -13.8308   28.7586 H   0  0  0  0  0  0  0  0  0  0  0  0
   -8.9179  -14.2529   32.1948 H   0  0  0  0  0  0  0  0  0  0  0  0
   -9.8122  -16.5731   34.1314 H   0  0  0  0  0  0  0  0  0  0  0  0
   -6.5478  -20.3576   36.8165 H   0  0  0  0  0  0  0  0  0  0  0  0
   -6.4221  -19.1259   35.9886 H   0  0  0  0  0  0  0  0  0  0  0  0
   -4.9626  -21.5173   35.5525 H   0  0  0  0  0  0  0  0  0  0  0  0
   -5.2548  -20.7640   33.9690 H   0  0  0  0  0  0  0  0  0  0  0  0
   -6.1071  -23.4505   34.9341 H   0  0  0  0  0  0  0  0  0  0  0  0
   -5.8791  -22.9606   33.3096 H   0  0  0  0  0  0  0  0  0  0  0  0
   -7.3085  -20.7702   33.3101 H   0  0  0  0  0  0  0  0  0  0  0  0
   -8.8853  -21.0792   34.2923 H   0  0  0  0  0  0  0  0  0  0  0  0
  -10.6795  -19.9902   31.7166 H   0  0  0  0  0  0  0  0  0  0  0  0
   -9.7841  -21.7154   32.1729 H   0  0  0  0  0  0  0  0  0  0  0  0
  -12.3555  -21.3846   31.2475 H   0  0  0  0  0  0  0  0  0  0  0  0
  -11.1746  -21.1657   30.1999 H   0  0  0  0  0  0  0  0  0  0  0  0
  -12.4178  -21.6790   27.0563 H   0  0  0  0  0  0  0  0  0  0  0  0
  -11.7313  -23.6679   25.8122 H   0  0  0  0  0  0  0  0  0  0  0  0
  -10.0936  -25.1118   27.0254 H   0  0  0  0  0  0  0  0  0  0  0  0
   -9.8984  -24.3740   33.1480 H   0  0  0  0  0  0  0  0  0  0  0  0
   -8.9069  -24.3779   32.1647 H   0  0  0  0  0  0  0  0  0  0  0  0
   -8.8620  -21.7017   36.2224 H   0  0  0  0  0  0  0  0  0  0  0  0
   -7.1085  -21.8626   36.3873 H   0  0  0  0  0  0  0  0  0  0  0  0
  1  2  2  0
  2  3  1  0
  3  4  2  0
  4  5  1  0
  5  6  2  0
  6  7  1  0
  7  8  2  0
  8  9  1  0
  9 10  2  0
 10 11  1  0
  2 12  1  0
 12 13  1  0
 13 14  1  0
 14 15  1  0
 15 16  1  0
 16 17  1  0
 17 18  1  0
 18 19  1  0
 19 20  1  0
 20 21  1  0
 21 22  1  0
 22 23  2  0
 23 24  1  0
 24 25  2  0
 25 26  1  0
 26 27  2  0
 21 28  1  0
 16 29  1  0
 11  3  1  0
 29 12  1  0
 10  5  1  0
 28 16  1  0
 27 22  1  0
  4 30  1  0
  6 31  1  0
  7 32  1  0
  8 33  1  0
  9 34  1  0
 11 35  1  0
 13 36  1  0
 13 37  1  0
 14 38  1  0
 14 39  1  0
 15 40  1  0
 15 41  1  0
 17 42  1  0
 17 43  1  0
 19 44  1  0
 19 45  1  0
 20 46  1  0
 20 47  1  0
 24 48  1  0
 25 49  1  0
 26 50  1  0
 28 51  1  0
 28 52  1  0
 29 53  1  0
 29 54  1  0
M  END
>  <Energy>  (1245) 
1715.5797923995035

>  <compound_id>  (1245) 
75199

>  <target_id>  (1245) 
1

>  <reference_id>  (1245) 
40

>  <inspiration_ids>  (1245) 
[40, 54]

>  <energy_score>  (1245) 
1552.3087022133145

>  <distance_score>  (1245) 
1.3090497593022732

>  <path>  (1245) 
/opt/xchem-fragalysis-2/maxwin/BulkDock/SCRATCH/511017/C75199-P40/C75199-P40.minimised.mol

>  <scratch_subdir>  (1245) 
/opt/xchem-fragalysis-2/maxwin/BulkDock/SCRATCH/511017/C75199-P40

>  <fragmenstein_runtime>  (1245) 
22.4078528881073

>  <fragmenstein_outcome>  (1245) 
too moved

>  <fragmenstein_mode>  (1245) 
expansion

>  <fragmenstein_error>  (1245) 


$$$$
C75199-P54
     RDKit          3D

 54 58  0  0  0  0  0  0  0  0999 V2000
  -12.9267  -20.8002   30.8917 O   0  0  0  0  0  0  0  0  0  0  0  0
  -11.9648  -20.5333   31.5544 C   0  0  0  0  0  0  0  0  0  0  0  0
  -12.1751  -19.5662   32.6193 C   0  0  0  0  0  0  0  0  0  0  0  0
  -11.4354  -18.4968   33.0701 C   0  0  0  0  0  0  0  0  0  0  0  0
  -12.2975  -17.6591   33.8497 C   0  0  0  0  0  0  0  0  0  0  0  0
  -12.1862  -16.3503   34.3668 C   0  0  0  0  0  0  0  0  0  0  0  0
  -13.3299  -15.6997   34.8504 C   0  0  0  0  0  0  0  0  0  0  0  0
  -14.5702  -16.3385   34.8396 C   0  0  0  0  0  0  0  0  0  0  0  0
  -14.7013  -17.6495   34.3650 C   0  0  0  0  0  0  0  0  0  0  0  0
  -13.5494  -18.2746   33.8702 C   0  0  0  0  0  0  0  0  0  0  0  0
  -13.3815  -19.5049   33.2872 N   0  0  0  0  0  0  0  0  0  0  0  0
  -10.6480  -21.0690   31.5290 N   0  0  0  0  0  0  0  0  0  0  0  0
  -10.5395  -22.2427   32.4966 C   0  0  0  0  0  0  0  0  0  0  0  0
   -9.8761  -23.6382   32.3822 C   0  0  0  0  0  0  0  0  0  0  0  0
  -10.5584  -24.3614   31.2388 C   0  0  0  0  0  0  0  0  0  0  0  0
  -10.5667  -23.4012   30.0611 C   0  0  0  0  0  0  0  0  0  0  0  0
  -11.9565  -23.1964   29.4514 C   0  0  0  0  0  0  0  0  0  0  0  0
  -11.9423  -22.2232   28.4112 O   0  0  0  0  0  0  0  0  0  0  0  0
  -11.8772  -22.8000   27.1108 C   0  0  0  0  0  0  0  0  0  0  0  0
  -10.5095  -23.3936   26.8191 C   0  0  0  0  0  0  0  0  0  0  0  0
  -10.1138  -24.4276   27.7746 N   0  0  0  0  0  0  0  0  0  0  0  0
  -10.8799  -25.5747   27.7355 C   0  0  0  0  0  0  0  0  0  0  0  0
  -11.5101  -25.8634   26.5866 N   0  0  0  0  0  0  0  0  0  0  0  0
  -12.3556  -26.9051   26.5714 C   0  0  0  0  0  0  0  0  0  0  0  0
  -12.5945  -27.6935   27.6630 C   0  0  0  0  0  0  0  0  0  0  0  0
  -11.8948  -27.3501   28.7879 C   0  0  0  0  0  0  0  0  0  0  0  0
  -11.0518  -26.3027   28.8497 N   0  0  0  0  0  0  0  0  0  0  0  0
   -9.5434  -23.9280   29.0167 C   0  0  0  0  0  0  0  0  0  0  0  0
  -10.0141  -22.0490   30.5996 C   0  0  0  0  0  0  0  0  0  0  0  0
  -10.4734  -18.2179   32.6681 H   0  0  0  0  0  0  0  0  0  0  0  0
  -11.2416  -15.8176   34.3063 H   0  0  0  0  0  0  0  0  0  0  0  0
  -13.2422  -14.6824   35.2231 H   0  0  0  0  0  0  0  0  0  0  0  0
  -15.4460  -15.8211   35.2244 H   0  0  0  0  0  0  0  0  0  0  0  0
  -15.6615  -18.1548   34.3646 H   0  0  0  0  0  0  0  0  0  0  0  0
  -14.1018  -20.2102   33.1507 H   0  0  0  0  0  0  0  0  0  0  0  0
  -11.5371  -22.3976   32.8828 H   0  0  0  0  0  0  0  0  0  0  0  0
  -10.0220  -21.7705   33.3478 H   0  0  0  0  0  0  0  0  0  0  0  0
   -9.9669  -24.1858   33.3234 H   0  0  0  0  0  0  0  0  0  0  0  0
   -8.7923  -23.5693   32.2263 H   0  0  0  0  0  0  0  0  0  0  0  0
  -11.5798  -24.6527   31.4637 H   0  0  0  0  0  0  0  0  0  0  0  0
  -10.0380  -25.2984   31.0508 H   0  0  0  0  0  0  0  0  0  0  0  0
  -12.4524  -24.1185   29.1361 H   0  0  0  0  0  0  0  0  0  0  0  0
  -12.6154  -22.8107   30.2108 H   0  0  0  0  0  0  0  0  0  0  0  0
  -12.0420  -22.0013   26.3875 H   0  0  0  0  0  0  0  0  0  0  0  0
  -12.6950  -23.5164   26.9771 H   0  0  0  0  0  0  0  0  0  0  0  0
   -9.7766  -22.5911   26.8907 H   0  0  0  0  0  0  0  0  0  0  0  0
  -10.4635  -23.7571   25.7873 H   0  0  0  0  0  0  0  0  0  0  0  0
  -12.8422  -27.0945   25.6194 H   0  0  0  0  0  0  0  0  0  0  0  0
  -13.2708  -28.5353   27.6325 H   0  0  0  0  0  0  0  0  0  0  0  0
  -11.9936  -27.9232   29.7045 H   0  0  0  0  0  0  0  0  0  0  0  0
   -8.8642  -24.6694   29.4406 H   0  0  0  0  0  0  0  0  0  0  0  0
   -8.8533  -23.1181   28.7536 H   0  0  0  0  0  0  0  0  0  0  0  0
  -10.0278  -21.4341   29.6878 H   0  0  0  0  0  0  0  0  0  0  0  0
   -8.9493  -22.1483   30.8524 H   0  0  0  0  0  0  0  0  0  0  0  0
  1  2  2  0
  2  3  1  0
  3  4  2  0
  4  5  1  0
  5  6  2  0
  6  7  1  0
  7  8  2  0
  8  9  1  0
  9 10  2  0
 10 11  1  0
  2 12  1  0
 12 13  1  0
 13 14  1  0
 14 15  1  0
 15 16  1  0
 16 17  1  0
 17 18  1  0
 18 19  1  0
 19 20  1  0
 20 21  1  0
 21 22  1  0
 22 23  2  0
 23 24  1  0
 24 25  2  0
 25 26  1  0
 26 27  2  0
 21 28  1  0
 16 29  1  0
 11  3  1  0
 29 12  1  0
 10  5  1  0
 28 16  1  0
 27 22  1  0
  4 30  1  0
  6 31  1  0
  7 32  1  0
  8 33  1  0
  9 34  1  0
 11 35  1  0
 13 36  1  0
 13 37  1  0
 14 38  1  0
 14 39  1  0
 15 40  1  0
 15 41  1  0
 17 42  1  0
 17 43  1  0
 19 44  1  0
 19 45  1  0
 20 46  1  0
 20 47  1  0
 24 48  1  0
 25 49  1  0
 26 50  1  0
 28 51  1  0
 28 52  1  0
 29 53  1  0
 29 54  1  0
M  END
>  <Energy>  (1246) 
74.597902261072292

>  <compound_id>  (1246) 
75199

>  <target_id>  (1246) 
1

>  <reference_id>  (1246) 
54

>  <inspiration_ids>  (1246) 
[40, 54]

>  <energy_score>  (1246) 
-88.67318792512776

>  <distance_score>  (1246) 
4.2168336209338

>  <path>  (1246) 
/opt/xchem-fragalysis-2/maxwin/BulkDock/SCRATCH/511017/C75199-P54/C75199-P54.minimised.mol

>  <scratch_subdir>  (1246) 
/opt/xchem-fragalysis-2/maxwin/BulkDock/SCRATCH/511017/C75199-P54

>  <fragmenstein_runtime>  (1246) 
27.403191804885864

>  <fragmenstein_outcome>  (1246) 
too moved

>  <fragmenstein_mode>  (1246) 
expansion

>  <fragmenstein_error>  (1246) 


$$$$
C75200-P40
     RDKit          3D

 46 48  0  0  0  0  0  0  0  0999 V2000
  -11.0920  -22.4328   31.5281 C   0  0  0  0  0  0  0  0  0  0  0  0
  -11.5295  -21.4362   30.5489 C   0  0  0  0  0  0  0  0  0  0  0  0
  -10.9436  -20.4772   29.3344 C   0  0  0  0  0  0  0  0  0  0  0  0
  -12.5219  -20.2900   29.1217 C   0  0  0  0  0  0  0  0  0  0  0  0
  -10.4316  -18.4849   29.0935 N   0  0  0  0  0  0  0  0  0  0  0  0
   -8.7473  -17.6023   28.3362 C   0  0  0  0  0  0  0  0  0  0  0  0
   -7.9789  -18.3306   27.8950 O   0  0  0  0  0  0  0  0  0  0  0  0
   -8.0100  -15.5915   28.1288 C   0  0  0  0  0  0  0  0  0  0  0  0
   -6.5008  -14.2719   28.7841 C   0  0  0  0  0  0  0  0  0  0  0  0
   -6.4565  -13.7592   29.9482 C   0  0  0  0  0  0  0  0  0  0  0  0
   -6.8326  -13.1431   28.2374 N   0  0  0  0  0  0  0  0  0  0  0  0
   -5.5463  -12.0924   27.4795 C   0  0  0  0  0  0  0  0  0  0  0  0
   -3.9362  -12.0920   27.1578 C   0  0  0  0  0  0  0  0  0  0  0  0
   -2.7488  -11.8726   27.7943 C   0  0  0  0  0  0  0  0  0  0  0  0
   -2.5865  -11.7661   29.0922 C   0  0  0  0  0  0  0  0  0  0  0  0
   -3.7683  -11.6335   29.6565 C   0  0  0  0  0  0  0  0  0  0  0  0
   -3.1920  -10.0416   30.9217 C   0  0  0  0  0  0  0  0  0  0  0  0
   -5.4449  -12.4150   29.1073 C   0  0  0  0  0  0  0  0  0  0  0  0
  -10.8817  -21.7429   28.1060 C   0  0  0  0  0  0  0  0  0  0  0  0
  -11.7264  -21.7407   27.0384 N   0  0  0  0  0  0  0  0  0  0  0  0
  -12.0414  -22.8902   26.4024 C   0  0  0  0  0  0  0  0  0  0  0  0
  -11.4482  -24.0715   26.6909 C   0  0  0  0  0  0  0  0  0  0  0  0
  -10.5374  -23.9883   27.6968 C   0  0  0  0  0  0  0  0  0  0  0  0
  -10.2908  -22.8885   28.4405 N   0  0  0  0  0  0  0  0  0  0  0  0
  -11.5561  -22.6509   32.3834 H   0  0  0  0  0  0  0  0  0  0  0  0
  -10.2564  -21.9622   32.0970 H   0  0  0  0  0  0  0  0  0  0  0  0
  -10.8901  -23.4806   31.3390 H   0  0  0  0  0  0  0  0  0  0  0  0
  -12.1615  -20.8540   31.1833 H   0  0  0  0  0  0  0  0  0  0  0  0
  -12.2006  -22.1403   30.0328 H   0  0  0  0  0  0  0  0  0  0  0  0
  -12.8967  -20.9274   28.3673 H   0  0  0  0  0  0  0  0  0  0  0  0
  -12.7031  -19.2424   29.1037 H   0  0  0  0  0  0  0  0  0  0  0  0
  -13.2323  -20.5970   29.8688 H   0  0  0  0  0  0  0  0  0  0  0  0
  -11.0928  -17.7608   29.3843 H   0  0  0  0  0  0  0  0  0  0  0  0
   -8.6453  -14.7376   27.7756 H   0  0  0  0  0  0  0  0  0  0  0  0
   -7.9784  -15.7861   27.0632 H   0  0  0  0  0  0  0  0  0  0  0  0
   -7.1694  -14.0201   30.6986 H   0  0  0  0  0  0  0  0  0  0  0  0
   -7.6863  -13.2416   27.6719 H   0  0  0  0  0  0  0  0  0  0  0  0
   -3.5183  -12.1563   26.1161 H   0  0  0  0  0  0  0  0  0  0  0  0
   -2.0347  -11.5031   27.0956 H   0  0  0  0  0  0  0  0  0  0  0  0
   -1.7919  -11.2218   29.5387 H   0  0  0  0  0  0  0  0  0  0  0  0
   -1.9844  -10.0009   30.7227 H   0  0  0  0  0  0  0  0  0  0  0  0
   -3.7983   -9.0885   31.1412 H   0  0  0  0  0  0  0  0  0  0  0  0
   -2.5796   -9.8156   31.9074 H   0  0  0  0  0  0  0  0  0  0  0  0
  -12.7770  -22.7994   25.6111 H   0  0  0  0  0  0  0  0  0  0  0  0
  -11.6758  -25.0032   26.2044 H   0  0  0  0  0  0  0  0  0  0  0  0
  -10.0151  -24.8742   28.0123 H   0  0  0  0  0  0  0  0  0  0  0  0
  1  2  1  0
  2  3  1  0
  3  4  1  0
  3  5  1  0
  5  6  1  0
  6  7  2  0
  6  8  1  0
  8  9  1  0
  9 10  2  0
 10 11  1  0
 11 12  1  0
 12 13  2  0
 13 14  1  0
 14 15  2  0
 15 16  1  0
 16 17  1  0
 16 18  2  0
  3 19  1  0
 19 20  2  0
 20 21  1  0
 21 22  2  0
 22 23  1  0
 23 24  2  0
 18  9  1  0
 24 19  1  0
 18 12  1  0
  1 25  1  0
  1 26  1  0
  1 27  1  0
  2 28  1  0
  2 29  1  0
  4 30  1  0
  4 31  1  0
  4 32  1  0
  5 33  1  0
  8 34  1  0
  8 35  1  0
 10 36  1  0
 11 37  1  0
 13 38  1  0
 14 39  1  0
 15 40  1  0
 17 41  1  0
 17 42  1  0
 17 43  1  0
 21 44  1  0
 22 45  1  0
 23 46  1  0
M  END
>  <Energy>  (1247) 
1692.4834945288039

>  <compound_id>  (1247) 
75200

>  <target_id>  (1247) 
1

>  <reference_id>  (1247) 
40

>  <inspiration_ids>  (1247) 
[40, 54]

>  <energy_score>  (1247) 
1596.4248795324033

>  <distance_score>  (1247) 
6.61437619214068

>  <path>  (1247) 
/opt/xchem-fragalysis-2/maxwin/BulkDock/SCRATCH/511017/C75200-P40/C75200-P40.minimised.mol

>  <scratch_subdir>  (1247) 
/opt/xchem-fragalysis-2/maxwin/BulkDock/SCRATCH/511017/C75200-P40

>  <fragmenstein_runtime>  (1247) 
20.525086879730225

>  <fragmenstein_outcome>  (1247) 
too moved

>  <fragmenstein_mode>  (1247) 
expansion

>  <fragmenstein_error>  (1247) 


$$$$
C75200-P54
     RDKit          3D

 46 48  0  0  0  0  0  0  0  0999 V2000
   -9.3949  -22.5734   34.2328 C   0  0  0  0  0  0  0  0  0  0  0  0
   -8.4961  -21.5053   33.5786 C   0  0  0  0  0  0  0  0  0  0  0  0
   -9.2134  -20.1954   33.0919 C   0  0  0  0  0  0  0  0  0  0  0  0
  -10.6160  -19.8266   33.7894 C   0  0  0  0  0  0  0  0  0  0  0  0
   -8.3520  -18.7567   32.3410 N   0  0  0  0  0  0  0  0  0  0  0  0
   -6.5769  -18.0050   32.5835 C   0  0  0  0  0  0  0  0  0  0  0  0
   -6.1028  -18.5497   33.3870 O   0  0  0  0  0  0  0  0  0  0  0  0
   -5.1017  -16.6479   31.7462 C   0  0  0  0  0  0  0  0  0  0  0  0
   -2.9463  -16.1191   31.6151 C   0  0  0  0  0  0  0  0  0  0  0  0
   -1.9984  -15.6323   30.6784 C   0  0  0  0  0  0  0  0  0  0  0  0
   -2.7099  -14.0772   30.2377 N   0  0  0  0  0  0  0  0  0  0  0  0
   -2.9092  -13.1438   31.1179 C   0  0  0  0  0  0  0  0  0  0  0  0
   -2.3415  -11.6563   31.3700 C   0  0  0  0  0  0  0  0  0  0  0  0
   -1.4052  -10.9414   30.6740 C   0  0  0  0  0  0  0  0  0  0  0  0
   -0.9099  -11.6327   29.6475 C   0  0  0  0  0  0  0  0  0  0  0  0
   -1.0653  -13.0352   29.8342 C   0  0  0  0  0  0  0  0  0  0  0  0
    0.3377  -13.5882   28.8785 C   0  0  0  0  0  0  0  0  0  0  0  0
   -2.1903  -14.3023   30.8958 C   0  0  0  0  0  0  0  0  0  0  0  0
  -10.1728  -20.9216   31.7985 C   0  0  0  0  0  0  0  0  0  0  0  0
  -10.9265  -20.0816   31.0351 N   0  0  0  0  0  0  0  0  0  0  0  0
  -11.3892  -20.5798   29.8708 C   0  0  0  0  0  0  0  0  0  0  0  0
  -11.2399  -21.8819   29.4619 C   0  0  0  0  0  0  0  0  0  0  0  0
  -10.5191  -22.6749   30.3128 C   0  0  0  0  0  0  0  0  0  0  0  0
   -9.9498  -22.2165   31.4436 N   0  0  0  0  0  0  0  0  0  0  0  0
   -8.8250  -23.4963   34.3773 H   0  0  0  0  0  0  0  0  0  0  0  0
  -10.2864  -22.8343   33.6654 H   0  0  0  0  0  0  0  0  0  0  0  0
   -9.7307  -22.2347   35.2168 H   0  0  0  0  0  0  0  0  0  0  0  0
   -7.8017  -21.3485   34.3825 H   0  0  0  0  0  0  0  0  0  0  0  0
   -7.9171  -21.9655   32.7737 H   0  0  0  0  0  0  0  0  0  0  0  0
  -11.3860  -20.6036   33.6670 H   0  0  0  0  0  0  0  0  0  0  0  0
  -11.0264  -18.8984   33.3695 H   0  0  0  0  0  0  0  0  0  0  0  0
  -10.6081  -19.7233   34.8695 H   0  0  0  0  0  0  0  0  0  0  0  0
   -8.8215  -18.2205   31.6815 H   0  0  0  0  0  0  0  0  0  0  0  0
   -5.1415  -16.4367   32.8018 H   0  0  0  0  0  0  0  0  0  0  0  0
   -5.6697  -15.7396   31.4807 H   0  0  0  0  0  0  0  0  0  0  0  0
   -1.0376  -15.9519   30.2488 H   0  0  0  0  0  0  0  0  0  0  0  0
   -2.9120  -13.6909   29.2675 H   0  0  0  0  0  0  0  0  0  0  0  0
   -3.0317  -11.0358   31.9466 H   0  0  0  0  0  0  0  0  0  0  0  0
   -1.1654   -9.8977   30.7835 H   0  0  0  0  0  0  0  0  0  0  0  0
   -0.2906  -11.1074   28.9785 H   0  0  0  0  0  0  0  0  0  0  0  0
    0.5144  -14.6674   28.9754 H   0  0  0  0  0  0  0  0  0  0  0  0
    0.1795  -13.2204   27.8600 H   0  0  0  0  0  0  0  0  0  0  0  0
    1.2869  -13.1555   29.0899 H   0  0  0  0  0  0  0  0  0  0  0  0
  -11.8582  -19.8471   29.2286 H   0  0  0  0  0  0  0  0  0  0  0  0
  -11.6311  -22.2430   28.5221 H   0  0  0  0  0  0  0  0  0  0  0  0
  -10.3295  -23.7201   30.0909 H   0  0  0  0  0  0  0  0  0  0  0  0
  1  2  1  0
  2  3  1  0
  3  4  1  0
  3  5  1  0
  5  6  1  0
  6  7  2  0
  6  8  1  0
  8  9  1  0
  9 10  2  0
 10 11  1  0
 11 12  1  0
 12 13  2  0
 13 14  1  0
 14 15  2  0
 15 16  1  0
 16 17  1  0
 16 18  2  0
  3 19  1  0
 19 20  2  0
 20 21  1  0
 21 22  2  0
 22 23  1  0
 23 24  2  0
 18  9  1  0
 24 19  1  0
 18 12  1  0
  1 25  1  0
  1 26  1  0
  1 27  1  0
  2 28  1  0
  2 29  1  0
  4 30  1  0
  4 31  1  0
  4 32  1  0
  5 33  1  0
  8 34  1  0
  8 35  1  0
 10 36  1  0
 11 37  1  0
 13 38  1  0
 14 39  1  0
 15 40  1  0
 17 41  1  0
 17 42  1  0
 17 43  1  0
 21 44  1  0
 22 45  1  0
 23 46  1  0
M  END
>  <Energy>  (1248) 
1421.6691589747563

>  <compound_id>  (1248) 
75200

>  <target_id>  (1248) 
1

>  <reference_id>  (1248) 
54

>  <inspiration_ids>  (1248) 
[40, 54]

>  <energy_score>  (1248) 
1325.6105439783614

>  <distance_score>  (1248) 
6.287554810679211

>  <path>  (1248) 
/opt/xchem-fragalysis-2/maxwin/BulkDock/SCRATCH/511017/C75200-P54/C75200-P54.minimised.mol

>  <scratch_subdir>  (1248) 
/opt/xchem-fragalysis-2/maxwin/BulkDock/SCRATCH/511017/C75200-P54

>  <fragmenstein_runtime>  (1248) 
22.962890625

>  <fragmenstein_outcome>  (1248) 
too moved

>  <fragmenstein_mode>  (1248) 
expansion

>  <fragmenstein_error>  (1248) 


$$$$
C75204-P40
     RDKit          3D

 49 52  0  0  0  0  0  0  0  0999 V2000
   -7.1514  -18.3898   31.2862 O   0  0  0  0  0  0  0  0  0  0  0  0
   -7.0174  -17.5259   32.0452 C   0  0  0  0  0  0  0  0  0  0  0  0
   -5.7514  -15.8390   31.3192 C   0  0  0  0  0  0  0  0  0  0  0  0
   -5.1732  -13.9989   30.3430 C   0  0  0  0  0  0  0  0  0  0  0  0
   -3.8716  -12.4547   29.4245 C   0  0  0  0  0  0  0  0  0  0  0  0
   -2.6140  -12.5769   28.8841 C   0  0  0  0  0  0  0  0  0  0  0  0
   -2.3118  -11.4904   28.0672 N   0  0  0  0  0  0  0  0  0  0  0  0
   -1.4926  -10.6074   28.9248 C   0  0  0  0  0  0  0  0  0  0  0  0
   -0.5324   -9.3014   29.0647 C   0  0  0  0  0  0  0  0  0  0  0  0
   -0.2557   -8.4766   30.1502 C   0  0  0  0  0  0  0  0  0  0  0  0
   -0.8795   -8.8452   31.2603 C   0  0  0  0  0  0  0  0  0  0  0  0
   -1.7444   -9.9519   31.0632 C   0  0  0  0  0  0  0  0  0  0  0  0
   -2.3826  -11.1699   29.8271 C   0  0  0  0  0  0  0  0  0  0  0  0
   -7.7015  -17.2651   33.5297 N   0  0  0  0  0  0  0  0  0  0  0  0
   -8.8412  -18.2372   34.7717 C   0  0  0  0  0  0  0  0  0  0  0  0
  -10.6898  -18.0840   35.1217 C   0  0  0  0  0  0  0  0  0  0  0  0
  -11.6303  -18.5191   33.8897 C   0  0  0  0  0  0  0  0  0  0  0  0
  -10.5612  -19.5302   32.5789 N   0  0  0  0  0  0  0  0  0  0  0  0
  -10.9765  -20.6818   31.1581 C   0  0  0  0  0  0  0  0  0  0  0  0
  -11.3128  -20.3000   29.9567 N   0  0  0  0  0  0  0  0  0  0  0  0
  -12.1863  -20.9214   29.1426 C   0  0  0  0  0  0  0  0  0  0  0  0
  -11.7671  -21.9764   28.5432 C   0  0  0  0  0  0  0  0  0  0  0  0
  -11.1446  -22.4673   29.5790 C   0  0  0  0  0  0  0  0  0  0  0  0
  -11.1643  -21.9659   30.9873 N   0  0  0  0  0  0  0  0  0  0  0  0
   -9.2929  -19.8261   33.7828 C   0  0  0  0  0  0  0  0  0  0  0  0
   -8.7509  -18.0580   34.0888 C   0  0  0  0  0  0  0  0  0  0  0  0
   -5.6271  -16.2712   30.2912 H   0  0  0  0  0  0  0  0  0  0  0  0
   -4.7601  -15.9601   31.7395 H   0  0  0  0  0  0  0  0  0  0  0  0
   -4.2559  -14.6738   30.4240 H   0  0  0  0  0  0  0  0  0  0  0  0
   -6.0511  -13.9812   29.6920 H   0  0  0  0  0  0  0  0  0  0  0  0
   -2.2241  -13.6258   28.7173 H   0  0  0  0  0  0  0  0  0  0  0  0
   -2.2637  -11.5266   27.0518 H   0  0  0  0  0  0  0  0  0  0  0  0
   -0.4138   -8.5923   28.2537 H   0  0  0  0  0  0  0  0  0  0  0  0
    0.3147   -7.5608   30.0776 H   0  0  0  0  0  0  0  0  0  0  0  0
   -0.8526   -8.2844   32.1870 H   0  0  0  0  0  0  0  0  0  0  0  0
   -2.4379   -9.7360   31.9000 H   0  0  0  0  0  0  0  0  0  0  0  0
   -8.2491  -19.0847   35.4913 H   0  0  0  0  0  0  0  0  0  0  0  0
   -8.6394  -17.4931   35.7876 H   0  0  0  0  0  0  0  0  0  0  0  0
  -10.8689  -18.7339   35.9892 H   0  0  0  0  0  0  0  0  0  0  0  0
  -10.9054  -17.0516   35.4309 H   0  0  0  0  0  0  0  0  0  0  0  0
  -12.4232  -19.1478   34.3561 H   0  0  0  0  0  0  0  0  0  0  0  0
  -12.4110  -17.7519   33.7469 H   0  0  0  0  0  0  0  0  0  0  0  0
  -12.9500  -20.2654   28.8790 H   0  0  0  0  0  0  0  0  0  0  0  0
  -11.9944  -22.4196   27.6030 H   0  0  0  0  0  0  0  0  0  0  0  0
  -10.5657  -23.3536   29.3450 H   0  0  0  0  0  0  0  0  0  0  0  0
   -9.6944  -20.0838   34.7772 H   0  0  0  0  0  0  0  0  0  0  0  0
   -8.4091  -20.5222   33.8301 H   0  0  0  0  0  0  0  0  0  0  0  0
   -9.4286  -16.8236   34.1338 H   0  0  0  0  0  0  0  0  0  0  0  0
   -9.6343  -17.8418   33.3466 H   0  0  0  0  0  0  0  0  0  0  0  0
  1  2  2  0
  2  3  1  0
  3  4  1  0
  4  5  1  0
  5  6  2  0
  6  7  1  0
  7  8  1  0
  8  9  2  0
  9 10  1  0
 10 11  2  0
 11 12  1  0
 12 13  2  0
  2 14  1  0
 14 15  1  0
 15 16  1  0
 16 17  1  0
 17 18  1  0
 18 19  1  0
 19 20  2  0
 20 21  1  0
 21 22  2  0
 22 23  1  0
 23 24  2  0
 18 25  1  0
 25 26  1  0
 13  5  1  0
 26 14  1  0
 13  8  1  0
 24 19  1  0
  3 27  1  0
  3 28  1  0
  4 29  1  0
  4 30  1  0
  6 31  1  0
  7 32  1  0
  9 33  1  0
 10 34  1  0
 11 35  1  0
 12 36  1  0
 15 37  1  0
 15 38  1  0
 16 39  1  0
 16 40  1  0
 17 41  1  0
 17 42  1  0
 21 43  1  0
 22 44  1  0
 23 45  1  0
 25 46  1  0
 25 47  1  0
 26 48  1  0
 26 49  1  0
M  END
>  <Energy>  (1249) 
2070.6222161353758

>  <compound_id>  (1249) 
75204

>  <target_id>  (1249) 
1

>  <reference_id>  (1249) 
40

>  <inspiration_ids>  (1249) 
[40, 54]

>  <energy_score>  (1249) 
2084.887536181087

>  <distance_score>  (1249) 
4.615386648795606

>  <path>  (1249) 
/opt/xchem-fragalysis-2/maxwin/BulkDock/SCRATCH/511017/C75204-P40/C75204-P40.minimised.mol

>  <scratch_subdir>  (1249) 
/opt/xchem-fragalysis-2/maxwin/BulkDock/SCRATCH/511017/C75204-P40

>  <fragmenstein_runtime>  (1249) 
26.310306072235107

>  <fragmenstein_outcome>  (1249) 
too moved

>  <fragmenstein_mode>  (1249) 
expansion

>  <fragmenstein_error>  (1249) 


$$$$
C75204-P54
     RDKit          3D

 49 52  0  0  0  0  0  0  0  0999 V2000
   -7.6195  -15.9598   32.8662 O   0  0  0  0  0  0  0  0  0  0  0  0
   -8.7385  -15.6302   32.7117 C   0  0  0  0  0  0  0  0  0  0  0  0
   -8.8190  -13.7364   32.3296 C   0  0  0  0  0  0  0  0  0  0  0  0
   -7.6198  -12.6730   31.2252 C   0  0  0  0  0  0  0  0  0  0  0  0
   -7.3923  -11.3719   29.6896 C   0  0  0  0  0  0  0  0  0  0  0  0
   -6.4294  -11.3794   28.5543 C   0  0  0  0  0  0  0  0  0  0  0  0
   -5.5995   -9.9396   28.3410 N   0  0  0  0  0  0  0  0  0  0  0  0
   -6.2784   -8.7833   28.9944 C   0  0  0  0  0  0  0  0  0  0  0  0
   -6.0798   -7.3308   29.3001 C   0  0  0  0  0  0  0  0  0  0  0  0
   -7.0647   -6.4425   29.7268 C   0  0  0  0  0  0  0  0  0  0  0  0
   -8.3036   -6.9288   30.0131 C   0  0  0  0  0  0  0  0  0  0  0  0
   -8.4622   -8.3131   30.0155 C   0  0  0  0  0  0  0  0  0  0  0  0
   -7.3431   -9.4308   29.6289 C   0  0  0  0  0  0  0  0  0  0  0  0
  -10.2929  -16.5811   32.6417 N   0  0  0  0  0  0  0  0  0  0  0  0
  -10.6435  -17.9123   32.6281 C   0  0  0  0  0  0  0  0  0  0  0  0
  -12.4152  -18.2944   33.3302 C   0  0  0  0  0  0  0  0  0  0  0  0
  -13.0389  -19.4697   32.4780 C   0  0  0  0  0  0  0  0  0  0  0  0
  -11.9719  -19.9783   31.6205 N   0  0  0  0  0  0  0  0  0  0  0  0
  -11.9805  -21.0202   30.7150 C   0  0  0  0  0  0  0  0  0  0  0  0
  -11.9075  -20.6477   29.4278 N   0  0  0  0  0  0  0  0  0  0  0  0
  -11.4937  -21.5513   28.5129 C   0  0  0  0  0  0  0  0  0  0  0  0
  -11.1638  -22.8424   28.8159 C   0  0  0  0  0  0  0  0  0  0  0  0
  -11.2562  -23.1488   30.1443 C   0  0  0  0  0  0  0  0  0  0  0  0
  -11.6279  -22.2626   31.0917 N   0  0  0  0  0  0  0  0  0  0  0  0
  -10.8428  -20.1486   32.4672 C   0  0  0  0  0  0  0  0  0  0  0  0
  -10.3549  -18.5180   33.0227 C   0  0  0  0  0  0  0  0  0  0  0  0
   -9.8177  -13.3348   32.2022 H   0  0  0  0  0  0  0  0  0  0  0  0
   -8.5072  -13.4085   33.3364 H   0  0  0  0  0  0  0  0  0  0  0  0
   -7.1482  -12.1450   32.0840 H   0  0  0  0  0  0  0  0  0  0  0  0
   -6.7197  -13.3368   31.2014 H   0  0  0  0  0  0  0  0  0  0  0  0
   -5.9479  -12.1796   28.0611 H   0  0  0  0  0  0  0  0  0  0  0  0
   -4.8531   -9.8916   27.6627 H   0  0  0  0  0  0  0  0  0  0  0  0
   -5.0878   -6.8781   29.1903 H   0  0  0  0  0  0  0  0  0  0  0  0
   -6.8420   -5.3872   29.8378 H   0  0  0  0  0  0  0  0  0  0  0  0
   -9.1115   -6.2798   30.3307 H   0  0  0  0  0  0  0  0  0  0  0  0
   -9.4077   -8.6862   30.4203 H   0  0  0  0  0  0  0  0  0  0  0  0
  -10.3357  -18.2199   31.3566 H   0  0  0  0  0  0  0  0  0  0  0  0
  -11.4005  -17.5723   31.9014 H   0  0  0  0  0  0  0  0  0  0  0  0
  -12.3256  -18.6617   34.3610 H   0  0  0  0  0  0  0  0  0  0  0  0
  -13.0245  -17.3968   33.4763 H   0  0  0  0  0  0  0  0  0  0  0  0
  -13.9161  -19.1459   31.9139 H   0  0  0  0  0  0  0  0  0  0  0  0
  -13.3417  -20.1958   33.2289 H   0  0  0  0  0  0  0  0  0  0  0  0
  -11.4332  -21.1811   27.4932 H   0  0  0  0  0  0  0  0  0  0  0  0
  -10.8413  -23.5520   28.0694 H   0  0  0  0  0  0  0  0  0  0  0  0
  -11.0042  -24.1370   30.5151 H   0  0  0  0  0  0  0  0  0  0  0  0
  -11.0737  -20.7207   33.3825 H   0  0  0  0  0  0  0  0  0  0  0  0
   -9.9839  -20.6756   32.0487 H   0  0  0  0  0  0  0  0  0  0  0  0
   -9.2135  -18.9522   32.5932 H   0  0  0  0  0  0  0  0  0  0  0  0
  -10.5171  -18.7546   34.2070 H   0  0  0  0  0  0  0  0  0  0  0  0
  1  2  2  0
  2  3  1  0
  3  4  1  0
  4  5  1  0
  5  6  2  0
  6  7  1  0
  7  8  1  0
  8  9  2  0
  9 10  1  0
 10 11  2  0
 11 12  1  0
 12 13  2  0
  2 14  1  0
 14 15  1  0
 15 16  1  0
 16 17  1  0
 17 18  1  0
 18 19  1  0
 19 20  2  0
 20 21  1  0
 21 22  2  0
 22 23  1  0
 23 24  2  0
 18 25  1  0
 25 26  1  0
 13  5  1  0
 26 14  1  0
 13  8  1  0
 24 19  1  0
  3 27  1  0
  3 28  1  0
  4 29  1  0
  4 30  1  0
  6 31  1  0
  7 32  1  0
  9 33  1  0
 10 34  1  0
 11 35  1  0
 12 36  1  0
 15 37  1  0
 15 38  1  0
 16 39  1  0
 16 40  1  0
 17 41  1  0
 17 42  1  0
 21 43  1  0
 22 44  1  0
 23 45  1  0
 25 46  1  0
 25 47  1  0
 26 48  1  0
 26 49  1  0
M  END
>  <Energy>  (1250) 
1190.2630848163469

>  <compound_id>  (1250) 
75204

>  <target_id>  (1250) 
1

>  <reference_id>  (1250) 
54

>  <inspiration_ids>  (1250) 
[40, 54]

>  <energy_score>  (1250) 
1204.528404862105

>  <distance_score>  (1250) 
6.244136475797428

>  <path>  (1250) 
/opt/xchem-fragalysis-2/maxwin/BulkDock/SCRATCH/511017/C75204-P54/C75204-P54.minimised.mol

>  <scratch_subdir>  (1250) 
/opt/xchem-fragalysis-2/maxwin/BulkDock/SCRATCH/511017/C75204-P54

>  <fragmenstein_runtime>  (1250) 
28.828630447387695

>  <fragmenstein_outcome>  (1250) 
too moved

>  <fragmenstein_mode>  (1250) 
expansion

>  <fragmenstein_error>  (1250) 


$$$$
C75205-P40
     RDKit          3D

 49 52  0  0  0  0  0  0  0  0999 V2000
   -5.7380  -14.0191   33.7880 O   0  0  0  0  0  0  0  0  0  0  0  0
   -5.3460  -14.5652   34.8151 C   0  0  0  0  0  0  0  0  0  0  0  0
   -4.2736  -13.9890   35.1576 C   0  0  0  0  0  0  0  0  0  0  0  0
   -4.9513  -11.7601   35.4824 C   0  0  0  0  0  0  0  0  0  0  0  0
   -3.7541  -10.2606   35.8865 C   0  0  0  0  0  0  0  0  0  0  0  0
   -2.8245  -10.2847   36.9815 C   0  0  0  0  0  0  0  0  0  0  0  0
   -1.7058   -9.4082   37.1004 C   0  0  0  0  0  0  0  0  0  0  0  0
   -1.4794   -8.4506   36.1012 C   0  0  0  0  0  0  0  0  0  0  0  0
   -0.4444   -7.5600   35.9201 N   0  0  0  0  0  0  0  0  0  0  0  0
   -0.5223   -6.9806   34.6841 C   0  0  0  0  0  0  0  0  0  0  0  0
   -1.6807   -7.4393   34.1025 C   0  0  0  0  0  0  0  0  0  0  0  0
   -2.3714   -8.2952   35.0387 C   0  0  0  0  0  0  0  0  0  0  0  0
   -3.5623   -9.1503   35.0008 C   0  0  0  0  0  0  0  0  0  0  0  0
   -6.1939  -15.9874   36.0446 N   0  0  0  0  0  0  0  0  0  0  0  0
   -7.9197  -16.8690   36.2071 C   0  0  0  0  0  0  0  0  0  0  0  0
   -9.5960  -18.0118   36.0581 C   0  0  0  0  0  0  0  0  0  0  0  0
  -10.6262  -18.1401   34.6556 C   0  0  0  0  0  0  0  0  0  0  0  0
   -9.9287  -18.9619   33.4002 N   0  0  0  0  0  0  0  0  0  0  0  0
  -10.6630  -19.9456   31.9446 C   0  0  0  0  0  0  0  0  0  0  0  0
  -12.0683  -20.5087   31.4264 N   0  0  0  0  0  0  0  0  0  0  0  0
  -12.6785  -21.1520   30.2240 C   0  0  0  0  0  0  0  0  0  0  0  0
  -12.0824  -21.4650   29.1250 C   0  0  0  0  0  0  0  0  0  0  0  0
  -10.9496  -21.5884   29.7216 C   0  0  0  0  0  0  0  0  0  0  0  0
  -10.4097  -21.0188   31.0964 N   0  0  0  0  0  0  0  0  0  0  0  0
   -8.3268  -18.2368   33.9316 C   0  0  0  0  0  0  0  0  0  0  0  0
   -7.9698  -16.9476   35.5587 C   0  0  0  0  0  0  0  0  0  0  0  0
   -3.4573  -14.1593   34.3636 H   0  0  0  0  0  0  0  0  0  0  0  0
   -3.8233  -14.7028   35.9605 H   0  0  0  0  0  0  0  0  0  0  0  0
   -5.9185  -11.4579   36.2467 H   0  0  0  0  0  0  0  0  0  0  0  0
   -5.4411  -10.9166   34.6857 H   0  0  0  0  0  0  0  0  0  0  0  0
   -2.8735  -11.0232   37.7768 H   0  0  0  0  0  0  0  0  0  0  0  0
   -1.0116   -9.5246   37.9263 H   0  0  0  0  0  0  0  0  0  0  0  0
    0.3066   -7.4293   36.5810 H   0  0  0  0  0  0  0  0  0  0  0  0
    0.2485   -6.3132   34.3268 H   0  0  0  0  0  0  0  0  0  0  0  0
   -1.9602   -7.2183   33.0849 H   0  0  0  0  0  0  0  0  0  0  0  0
   -4.2104   -9.0093   34.1570 H   0  0  0  0  0  0  0  0  0  0  0  0
   -8.3220  -16.2070   37.1773 H   0  0  0  0  0  0  0  0  0  0  0  0
   -7.4387  -17.4806   37.2266 H   0  0  0  0  0  0  0  0  0  0  0  0
  -10.2331  -17.5577   36.8325 H   0  0  0  0  0  0  0  0  0  0  0  0
   -9.3760  -19.0356   36.4010 H   0  0  0  0  0  0  0  0  0  0  0  0
  -11.5888  -18.5516   34.9767 H   0  0  0  0  0  0  0  0  0  0  0  0
  -10.7573  -17.0874   34.4162 H   0  0  0  0  0  0  0  0  0  0  0  0
  -13.7237  -21.3694   30.3639 H   0  0  0  0  0  0  0  0  0  0  0  0
  -12.3761  -21.8988   28.2007 H   0  0  0  0  0  0  0  0  0  0  0  0
  -10.3253  -22.2870   29.1726 H   0  0  0  0  0  0  0  0  0  0  0  0
   -7.7208  -17.8947   33.0852 H   0  0  0  0  0  0  0  0  0  0  0  0
   -7.8807  -19.2084   34.2284 H   0  0  0  0  0  0  0  0  0  0  0  0
   -8.8820  -16.2824   34.9410 H   0  0  0  0  0  0  0  0  0  0  0  0
   -7.7457  -18.4219   35.9397 H   0  0  0  0  0  0  0  0  0  0  0  0
  1  2  2  0
  2  3  1  0
  3  4  1  0
  4  5  1  0
  5  6  2  0
  6  7  1  0
  7  8  2  0
  8  9  1  0
  9 10  1  0
 10 11  2  0
 11 12  1  0
 12 13  2  0
  2 14  1  0
 14 15  1  0
 15 16  1  0
 16 17  1  0
 17 18  1  0
 18 19  1  0
 19 20  2  0
 20 21  1  0
 21 22  2  0
 22 23  1  0
 23 24  2  0
 18 25  1  0
 25 26  1  0
 13  5  1  0
 26 14  1  0
 12  8  1  0
 24 19  1  0
  3 27  1  0
  3 28  1  0
  4 29  1  0
  4 30  1  0
  6 31  1  0
  7 32  1  0
  9 33  1  0
 10 34  1  0
 11 35  1  0
 13 36  1  0
 15 37  1  0
 15 38  1  0
 16 39  1  0
 16 40  1  0
 17 41  1  0
 17 42  1  0
 21 43  1  0
 22 44  1  0
 23 45  1  0
 25 46  1  0
 25 47  1  0
 26 48  1  0
 26 49  1  0
M  END
>  <Energy>  (1251) 
1984.9515586971438

>  <compound_id>  (1251) 
75205

>  <target_id>  (1251) 
1

>  <reference_id>  (1251) 
40

>  <inspiration_ids>  (1251) 
[40, 54]

>  <energy_score>  (1251) 
1989.670930715839

>  <distance_score>  (1251) 
6.444687565736205

>  <path>  (1251) 
/opt/xchem-fragalysis-2/maxwin/BulkDock/SCRATCH/511017/C75205-P40/C75205-P40.minimised.mol

>  <scratch_subdir>  (1251) 
/opt/xchem-fragalysis-2/maxwin/BulkDock/SCRATCH/511017/C75205-P40

>  <fragmenstein_runtime>  (1251) 
21.050422191619873

>  <fragmenstein_outcome>  (1251) 
too moved

>  <fragmenstein_mode>  (1251) 
expansion

>  <fragmenstein_error>  (1251) 


$$$$
C75205-P54
     RDKit          3D

 49 52  0  0  0  0  0  0  0  0999 V2000
   -5.5971  -12.7994   31.9038 O   0  0  0  0  0  0  0  0  0  0  0  0
   -5.7049  -12.0662   32.7963 C   0  0  0  0  0  0  0  0  0  0  0  0
   -4.3762  -10.5908   32.9619 C   0  0  0  0  0  0  0  0  0  0  0  0
   -3.7515   -8.7383   32.8039 C   0  0  0  0  0  0  0  0  0  0  0  0
   -3.6342   -6.9668   32.1836 C   0  0  0  0  0  0  0  0  0  0  0  0
   -4.7652   -6.1826   31.9044 C   0  0  0  0  0  0  0  0  0  0  0  0
   -5.0201   -5.9341   30.5387 C   0  0  0  0  0  0  0  0  0  0  0  0
   -3.9547   -5.6201   29.7205 C   0  0  0  0  0  0  0  0  0  0  0  0
   -3.8728   -5.1999   28.4244 N   0  0  0  0  0  0  0  0  0  0  0  0
   -2.6566   -4.6182   28.2145 C   0  0  0  0  0  0  0  0  0  0  0  0
   -1.9240   -4.8661   29.3469 C   0  0  0  0  0  0  0  0  0  0  0  0
   -2.6848   -5.6970   30.2122 C   0  0  0  0  0  0  0  0  0  0  0  0
   -2.5474   -6.6055   31.3009 C   0  0  0  0  0  0  0  0  0  0  0  0
   -6.7348  -12.0508   34.1090 N   0  0  0  0  0  0  0  0  0  0  0  0
   -7.8068  -12.7654   34.4980 C   0  0  0  0  0  0  0  0  0  0  0  0
   -9.4492  -12.0653   35.1180 C   0  0  0  0  0  0  0  0  0  0  0  0
  -10.5507  -13.1707   35.2489 C   0  0  0  0  0  0  0  0  0  0  0  0
  -10.3925  -14.2018   34.2434 N   0  0  0  0  0  0  0  0  0  0  0  0
  -11.2680  -15.2814   34.1817 C   0  0  0  0  0  0  0  0  0  0  0  0
  -12.4998  -15.1585   34.6965 N   0  0  0  0  0  0  0  0  0  0  0  0
  -13.3207  -16.2318   34.6229 C   0  0  0  0  0  0  0  0  0  0  0  0
  -12.9541  -17.4692   34.1556 C   0  0  0  0  0  0  0  0  0  0  0  0
  -11.6722  -17.5320   33.6992 C   0  0  0  0  0  0  0  0  0  0  0  0
  -10.8619  -16.4536   33.6482 N   0  0  0  0  0  0  0  0  0  0  0  0
   -9.2100  -14.1085   33.3968 C   0  0  0  0  0  0  0  0  0  0  0  0
   -7.9255  -13.5220   34.4908 C   0  0  0  0  0  0  0  0  0  0  0  0
   -4.0932  -10.7456   34.0078 H   0  0  0  0  0  0  0  0  0  0  0  0
   -3.6103  -10.9637   32.2895 H   0  0  0  0  0  0  0  0  0  0  0  0
   -3.4649   -8.6813   33.7950 H   0  0  0  0  0  0  0  0  0  0  0  0
   -4.7108   -8.5188   32.5955 H   0  0  0  0  0  0  0  0  0  0  0  0
   -5.6321   -6.1981   32.5416 H   0  0  0  0  0  0  0  0  0  0  0  0
   -6.0283   -5.9918   30.1422 H   0  0  0  0  0  0  0  0  0  0  0  0
   -4.6753   -5.0888   27.8188 H   0  0  0  0  0  0  0  0  0  0  0  0
   -2.4246   -4.0587   27.3168 H   0  0  0  0  0  0  0  0  0  0  0  0
   -0.9270   -4.4878   29.4754 H   0  0  0  0  0  0  0  0  0  0  0  0
   -1.6421   -7.1569   31.4224 H   0  0  0  0  0  0  0  0  0  0  0  0
   -7.4582  -12.2054   35.5670 H   0  0  0  0  0  0  0  0  0  0  0  0
   -8.2090  -12.0556   33.5493 H   0  0  0  0  0  0  0  0  0  0  0  0
   -9.7653  -11.2916   34.4034 H   0  0  0  0  0  0  0  0  0  0  0  0
   -9.2755  -11.5698   36.0823 H   0  0  0  0  0  0  0  0  0  0  0  0
  -10.4632  -13.6214   36.2453 H   0  0  0  0  0  0  0  0  0  0  0  0
  -11.5350  -12.6928   35.1841 H   0  0  0  0  0  0  0  0  0  0  0  0
  -14.3208  -16.0600   35.0102 H   0  0  0  0  0  0  0  0  0  0  0  0
  -13.6164  -18.3219   34.1553 H   0  0  0  0  0  0  0  0  0  0  0  0
  -11.2563  -18.4511   33.3011 H   0  0  0  0  0  0  0  0  0  0  0  0
   -9.3557  -13.3857   32.5839 H   0  0  0  0  0  0  0  0  0  0  0  0
   -8.8670  -15.0513   32.9673 H   0  0  0  0  0  0  0  0  0  0  0  0
   -7.1411  -14.3844   34.0765 H   0  0  0  0  0  0  0  0  0  0  0  0
   -7.9231  -14.0843   35.6155 H   0  0  0  0  0  0  0  0  0  0  0  0
  1  2  2  0
  2  3  1  0
  3  4  1  0
  4  5  1  0
  5  6  2  0
  6  7  1  0
  7  8  2  0
  8  9  1  0
  9 10  1  0
 10 11  2  0
 11 12  1  0
 12 13  2  0
  2 14  1  0
 14 15  1  0
 15 16  1  0
 16 17  1  0
 17 18  1  0
 18 19  1  0
 19 20  2  0
 20 21  1  0
 21 22  2  0
 22 23  1  0
 23 24  2  0
 18 25  1  0
 25 26  1  0
 13  5  1  0
 26 14  1  0
 12  8  1  0
 24 19  1  0
  3 27  1  0
  3 28  1  0
  4 29  1  0
  4 30  1  0
  6 31  1  0
  7 32  1  0
  9 33  1  0
 10 34  1  0
 11 35  1  0
 13 36  1  0
 15 37  1  0
 15 38  1  0
 16 39  1  0
 16 40  1  0
 17 41  1  0
 17 42  1  0
 21 43  1  0
 22 44  1  0
 23 45  1  0
 25 46  1  0
 25 47  1  0
 26 48  1  0
 26 49  1  0
M  END
>  <Energy>  (1252) 
993.90358949902782

>  <compound_id>  (1252) 
75205

>  <target_id>  (1252) 
1

>  <reference_id>  (1252) 
54

>  <inspiration_ids>  (1252) 
[40, 54]

>  <energy_score>  (1252) 
998.6229615177222

>  <distance_score>  (1252) 
7.554446240444766

>  <path>  (1252) 
/opt/xchem-fragalysis-2/maxwin/BulkDock/SCRATCH/511017/C75205-P54/C75205-P54.minimised.mol

>  <scratch_subdir>  (1252) 
/opt/xchem-fragalysis-2/maxwin/BulkDock/SCRATCH/511017/C75205-P54

>  <fragmenstein_runtime>  (1252) 
24.57355570793152

>  <fragmenstein_outcome>  (1252) 
too moved

>  <fragmenstein_mode>  (1252) 
expansion

>  <fragmenstein_error>  (1252) 


$$$$
C75206-P40
     RDKit          3D

 43 46  0  0  0  0  0  0  0  0999 V2000
   -3.1651  -15.5399   31.7587 O   0  0  0  0  0  0  0  0  0  0  0  0
   -3.9418  -15.2223   30.9499 C   0  0  0  0  0  0  0  0  0  0  0  0
   -2.9308  -13.9633   29.4838 C   0  0  0  0  0  0  0  0  0  0  0  0
   -2.3427  -12.4669   29.9719 C   0  0  0  0  0  0  0  0  0  0  0  0
   -1.0663  -11.2520   30.7172 C   0  0  0  0  0  0  0  0  0  0  0  0
   -1.2424  -10.0326   30.4580 C   0  0  0  0  0  0  0  0  0  0  0  0
   -0.6531   -8.7492   30.5334 C   0  0  0  0  0  0  0  0  0  0  0  0
   -0.2632   -8.6272   29.2456 C   0  0  0  0  0  0  0  0  0  0  0  0
   -0.6506   -9.8458   28.7241 N   0  0  0  0  0  0  0  0  0  0  0  0
   -1.6801  -10.6589   29.2704 C   0  0  0  0  0  0  0  0  0  0  0  0
   -2.6622  -12.2658   28.8926 C   0  0  0  0  0  0  0  0  0  0  0  0
   -5.7915  -16.0492   31.0982 N   0  0  0  0  0  0  0  0  0  0  0  0
   -6.8245  -17.2706   32.4747 C   0  0  0  0  0  0  0  0  0  0  0  0
   -8.4083  -17.6102   33.7472 C   0  0  0  0  0  0  0  0  0  0  0  0
   -9.2440  -18.9798   34.0478 C   0  0  0  0  0  0  0  0  0  0  0  0
   -8.6302  -20.3463   33.7860 N   0  0  0  0  0  0  0  0  0  0  0  0
   -9.7708  -21.2936   32.4538 C   0  0  0  0  0  0  0  0  0  0  0  0
  -10.6131  -20.5983   31.2763 N   0  0  0  0  0  0  0  0  0  0  0  0
  -11.3182  -21.1232   30.2727 C   0  0  0  0  0  0  0  0  0  0  0  0
  -11.7323  -22.2990   30.4832 C   0  0  0  0  0  0  0  0  0  0  0  0
  -11.1719  -22.9763   31.5885 C   0  0  0  0  0  0  0  0  0  0  0  0
  -10.1972  -22.6370   32.4418 N   0  0  0  0  0  0  0  0  0  0  0  0
   -7.0148  -19.4503   33.0164 C   0  0  0  0  0  0  0  0  0  0  0  0
   -6.3858  -17.5172   32.3707 C   0  0  0  0  0  0  0  0  0  0  0  0
   -2.2746  -12.7856   31.1480 H   0  0  0  0  0  0  0  0  0  0  0  0
   -0.0730  -11.6762   30.8614 H   0  0  0  0  0  0  0  0  0  0  0  0
   -0.3307   -8.1807   31.3956 H   0  0  0  0  0  0  0  0  0  0  0  0
    0.3977   -7.9330   28.7465 H   0  0  0  0  0  0  0  0  0  0  0  0
   -0.1704  -10.3757   28.0719 H   0  0  0  0  0  0  0  0  0  0  0  0
   -2.8804  -12.1793   27.7881 H   0  0  0  0  0  0  0  0  0  0  0  0
   -7.6479  -18.1754   31.6639 H   0  0  0  0  0  0  0  0  0  0  0  0
   -7.8110  -16.4864   32.5199 H   0  0  0  0  0  0  0  0  0  0  0  0
   -9.2504  -16.9228   33.4654 H   0  0  0  0  0  0  0  0  0  0  0  0
   -8.3929  -17.1528   34.7653 H   0  0  0  0  0  0  0  0  0  0  0  0
   -9.5260  -18.9627   35.1076 H   0  0  0  0  0  0  0  0  0  0  0  0
  -10.1264  -18.8184   33.4685 H   0  0  0  0  0  0  0  0  0  0  0  0
  -11.6626  -20.6237   29.3910 H   0  0  0  0  0  0  0  0  0  0  0  0
  -12.4552  -22.6240   29.7687 H   0  0  0  0  0  0  0  0  0  0  0  0
  -11.1794  -24.0071   31.8236 H   0  0  0  0  0  0  0  0  0  0  0  0
   -6.5074  -19.5734   33.9646 H   0  0  0  0  0  0  0  0  0  0  0  0
   -6.5064  -20.2574   32.4845 H   0  0  0  0  0  0  0  0  0  0  0  0
   -5.2350  -17.7553   32.8244 H   0  0  0  0  0  0  0  0  0  0  0  0
   -6.5069  -17.8758   30.9367 H   0  0  0  0  0  0  0  0  0  0  0  0
  1  2  2  0
  2  3  1  0
  3  4  2  0
  4  5  1  0
  5  6  2  0
  6  7  1  0
  7  8  2  0
  8  9  1  0
  9 10  1  0
 10 11  2  0
  2 12  1  0
 12 13  1  0
 13 14  1  0
 14 15  1  0
 15 16  1  0
 16 17  1  0
 17 18  2  0
 18 19  1  0
 19 20  2  0
 20 21  1  0
 21 22  2  0
 16 23  1  0
 23 24  1  0
 11  3  1  0
 24 12  1  0
 10  6  1  0
 22 17  1  0
  4 25  1  0
  5 26  1  0
  7 27  1  0
  8 28  1  0
  9 29  1  0
 11 30  1  0
 13 31  1  0
 13 32  1  0
 14 33  1  0
 14 34  1  0
 15 35  1  0
 15 36  1  0
 19 37  1  0
 20 38  1  0
 21 39  1  0
 23 40  1  0
 23 41  1  0
 24 42  1  0
 24 43  1  0
M  END
>  <Energy>  (1253) 
2478.573060407869

>  <compound_id>  (1253) 
75206

>  <target_id>  (1253) 
1

>  <reference_id>  (1253) 
40

>  <inspiration_ids>  (1253) 
[40, 54]

>  <energy_score>  (1253) 
2460.803467988393

>  <distance_score>  (1253) 
5.3484465840810556

>  <path>  (1253) 
/opt/xchem-fragalysis-2/maxwin/BulkDock/SCRATCH/511017/C75206-P40/C75206-P40.minimised.mol

>  <scratch_subdir>  (1253) 
/opt/xchem-fragalysis-2/maxwin/BulkDock/SCRATCH/511017/C75206-P40

>  <fragmenstein_runtime>  (1253) 
27.557934522628784

>  <fragmenstein_outcome>  (1253) 
too moved

>  <fragmenstein_mode>  (1253) 
expansion

>  <fragmenstein_error>  (1253) 


$$$$
C75206-P54
     RDKit          3D

 43 46  0  0  0  0  0  0  0  0999 V2000
   -3.8145  -10.2883   34.4841 O   0  0  0  0  0  0  0  0  0  0  0  0
   -4.1929  -10.2135   33.3652 C   0  0  0  0  0  0  0  0  0  0  0  0
   -3.5995   -8.3911   32.5665 C   0  0  0  0  0  0  0  0  0  0  0  0
   -4.2282   -6.8688   32.5557 C   0  0  0  0  0  0  0  0  0  0  0  0
   -4.4052   -5.5317   31.8991 C   0  0  0  0  0  0  0  0  0  0  0  0
   -3.6131   -5.3039   30.8284 C   0  0  0  0  0  0  0  0  0  0  0  0
   -3.3882   -4.2489   29.9174 C   0  0  0  0  0  0  0  0  0  0  0  0
   -2.6656   -4.8032   28.8942 C   0  0  0  0  0  0  0  0  0  0  0  0
   -2.5890   -6.1285   29.2137 N   0  0  0  0  0  0  0  0  0  0  0  0
   -2.7312   -6.3341   30.5770 C   0  0  0  0  0  0  0  0  0  0  0  0
   -2.5484   -7.6184   31.4794 C   0  0  0  0  0  0  0  0  0  0  0  0
   -5.3004  -11.3847   32.4005 N   0  0  0  0  0  0  0  0  0  0  0  0
   -6.0184  -12.5111   32.9595 C   0  0  0  0  0  0  0  0  0  0  0  0
   -7.3020  -12.6460   34.4002 C   0  0  0  0  0  0  0  0  0  0  0  0
   -8.5501  -13.4303   34.1869 C   0  0  0  0  0  0  0  0  0  0  0  0
   -8.3628  -14.5092   33.3049 N   0  0  0  0  0  0  0  0  0  0  0  0
   -9.6639  -15.1466   33.2482 C   0  0  0  0  0  0  0  0  0  0  0  0
   -9.7473  -16.4060   32.7707 N   0  0  0  0  0  0  0  0  0  0  0  0
  -10.8085  -17.2023   33.0959 C   0  0  0  0  0  0  0  0  0  0  0  0
  -11.7986  -16.8415   33.9590 C   0  0  0  0  0  0  0  0  0  0  0  0
  -11.6819  -15.5602   34.4087 C   0  0  0  0  0  0  0  0  0  0  0  0
  -10.6536  -14.7314   34.0999 N   0  0  0  0  0  0  0  0  0  0  0  0
   -7.5622  -14.0341   32.1615 C   0  0  0  0  0  0  0  0  0  0  0  0
   -6.0728  -13.2126   32.7613 C   0  0  0  0  0  0  0  0  0  0  0  0
   -4.2238   -6.3608   33.5731 H   0  0  0  0  0  0  0  0  0  0  0  0
   -5.0237   -4.7777   32.3705 H   0  0  0  0  0  0  0  0  0  0  0  0
   -3.8122   -3.2542   29.9431 H   0  0  0  0  0  0  0  0  0  0  0  0
   -2.3440   -4.4144   27.9368 H   0  0  0  0  0  0  0  0  0  0  0  0
   -2.5151   -6.8820   28.5483 H   0  0  0  0  0  0  0  0  0  0  0  0
   -1.8296   -8.3042   31.0611 H   0  0  0  0  0  0  0  0  0  0  0  0
   -6.9807  -11.8734   32.4260 H   0  0  0  0  0  0  0  0  0  0  0  0
   -5.7062  -11.8754   33.8236 H   0  0  0  0  0  0  0  0  0  0  0  0
   -7.6646  -11.6597   34.6054 H   0  0  0  0  0  0  0  0  0  0  0  0
   -6.7824  -13.0701   35.2661 H   0  0  0  0  0  0  0  0  0  0  0  0
   -9.2774  -12.8322   33.6641 H   0  0  0  0  0  0  0  0  0  0  0  0
   -8.9193  -13.7021   35.1852 H   0  0  0  0  0  0  0  0  0  0  0  0
  -10.7958  -18.1822   32.6284 H   0  0  0  0  0  0  0  0  0  0  0  0
  -12.6115  -17.4950   34.2288 H   0  0  0  0  0  0  0  0  0  0  0  0
  -12.4192  -15.1311   35.0783 H   0  0  0  0  0  0  0  0  0  0  0  0
   -7.1174  -14.8994   31.6584 H   0  0  0  0  0  0  0  0  0  0  0  0
   -8.1155  -13.3340   31.5330 H   0  0  0  0  0  0  0  0  0  0  0  0
   -5.7901  -14.0556   33.7028 H   0  0  0  0  0  0  0  0  0  0  0  0
   -5.4404  -13.7544   31.8295 H   0  0  0  0  0  0  0  0  0  0  0  0
  1  2  2  0
  2  3  1  0
  3  4  2  0
  4  5  1  0
  5  6  2  0
  6  7  1  0
  7  8  2  0
  8  9  1  0
  9 10  1  0
 10 11  2  0
  2 12  1  0
 12 13  1  0
 13 14  1  0
 14 15  1  0
 15 16  1  0
 16 17  1  0
 17 18  2  0
 18 19  1  0
 19 20  2  0
 20 21  1  0
 21 22  2  0
 16 23  1  0
 23 24  1  0
 11  3  1  0
 24 12  1  0
 10  6  1  0
 22 17  1  0
  4 25  1  0
  5 26  1  0
  7 27  1  0
  8 28  1  0
  9 29  1  0
 11 30  1  0
 13 31  1  0
 13 32  1  0
 14 33  1  0
 14 34  1  0
 15 35  1  0
 15 36  1  0
 19 37  1  0
 20 38  1  0
 21 39  1  0
 23 40  1  0
 23 41  1  0
 24 42  1  0
 24 43  1  0
M  END
>  <Energy>  (1254) 
1194.7233875399133

>  <compound_id>  (1254) 
75206

>  <target_id>  (1254) 
1

>  <reference_id>  (1254) 
54

>  <inspiration_ids>  (1254) 
[40, 54]

>  <energy_score>  (1254) 
1176.9537951204227

>  <distance_score>  (1254) 
7.914420235028652

>  <path>  (1254) 
/opt/xchem-fragalysis-2/maxwin/BulkDock/SCRATCH/511017/C75206-P54/C75206-P54.minimised.mol

>  <scratch_subdir>  (1254) 
/opt/xchem-fragalysis-2/maxwin/BulkDock/SCRATCH/511017/C75206-P54

>  <fragmenstein_runtime>  (1254) 
16.162840843200684

>  <fragmenstein_outcome>  (1254) 
too moved

>  <fragmenstein_mode>  (1254) 
expansion

>  <fragmenstein_error>  (1254) 


$$$$
C75208-P40
     RDKit          3D

 43 46  0  0  0  0  0  0  0  0999 V2000
   -5.8215  -15.1806   30.4589 O   0  0  0  0  0  0  0  0  0  0  0  0
   -5.1646  -15.6447   31.2846 C   0  0  0  0  0  0  0  0  0  0  0  0
   -3.2658  -14.8007   31.1550 C   0  0  0  0  0  0  0  0  0  0  0  0
   -2.3696  -13.1660   31.5198 C   0  0  0  0  0  0  0  0  0  0  0  0
   -1.3436  -11.8065   30.5997 C   0  0  0  0  0  0  0  0  0  0  0  0
   -1.9985  -11.3206   29.5756 C   0  0  0  0  0  0  0  0  0  0  0  0
   -2.4905  -12.4092   28.8830 C   0  0  0  0  0  0  0  0  0  0  0  0
   -2.8581  -12.1130   27.4240 N   0  0  0  0  0  0  0  0  0  0  0  0
   -4.1478  -12.0066   27.6483 C   0  0  0  0  0  0  0  0  0  0  0  0
   -4.1575  -12.3843   29.0798 C   0  0  0  0  0  0  0  0  0  0  0  0
   -3.0343  -13.9683   29.4542 C   0  0  0  0  0  0  0  0  0  0  0  0
   -5.5527  -17.1131   32.5555 N   0  0  0  0  0  0  0  0  0  0  0  0
   -7.2470  -17.8544   32.6726 C   0  0  0  0  0  0  0  0  0  0  0  0
   -8.7025  -17.7765   33.9856 C   0  0  0  0  0  0  0  0  0  0  0  0
   -9.6018  -18.9855   34.0704 C   0  0  0  0  0  0  0  0  0  0  0  0
   -9.0993  -20.4057   33.8539 N   0  0  0  0  0  0  0  0  0  0  0  0
   -9.8536  -21.3377   32.3527 C   0  0  0  0  0  0  0  0  0  0  0  0
  -10.3021  -22.6285   32.4119 N   0  0  0  0  0  0  0  0  0  0  0  0
  -11.2176  -22.9533   31.5076 C   0  0  0  0  0  0  0  0  0  0  0  0
  -11.7437  -22.3001   30.3692 C   0  0  0  0  0  0  0  0  0  0  0  0
  -11.3508  -21.1181   30.1853 C   0  0  0  0  0  0  0  0  0  0  0  0
  -10.6621  -20.6233   31.2040 N   0  0  0  0  0  0  0  0  0  0  0  0
   -7.4373  -20.0143   33.9109 C   0  0  0  0  0  0  0  0  0  0  0  0
   -6.9878  -18.4381   32.8513 C   0  0  0  0  0  0  0  0  0  0  0  0
   -1.5555  -12.5459   32.0011 H   0  0  0  0  0  0  0  0  0  0  0  0
   -0.8041  -11.0255   31.1361 H   0  0  0  0  0  0  0  0  0  0  0  0
   -2.8604  -10.8873   29.9476 H   0  0  0  0  0  0  0  0  0  0  0  0
   -2.3333  -11.6307   26.7062 H   0  0  0  0  0  0  0  0  0  0  0  0
   -5.0201  -11.7659   27.0221 H   0  0  0  0  0  0  0  0  0  0  0  0
   -5.2240  -12.4048   29.2993 H   0  0  0  0  0  0  0  0  0  0  0  0
   -7.5164  -18.0076   31.3697 H   0  0  0  0  0  0  0  0  0  0  0  0
   -7.6800  -16.8211   32.6125 H   0  0  0  0  0  0  0  0  0  0  0  0
   -9.3628  -16.9413   33.6891 H   0  0  0  0  0  0  0  0  0  0  0  0
   -8.5117  -17.4332   35.0128 H   0  0  0  0  0  0  0  0  0  0  0  0
  -10.0198  -18.9562   35.0894 H   0  0  0  0  0  0  0  0  0  0  0  0
  -10.3664  -18.7467   33.3770 H   0  0  0  0  0  0  0  0  0  0  0  0
  -11.2078  -23.9823   31.7578 H   0  0  0  0  0  0  0  0  0  0  0  0
  -12.3869  -22.6552   29.5977 H   0  0  0  0  0  0  0  0  0  0  0  0
  -11.7135  -20.5969   29.3269 H   0  0  0  0  0  0  0  0  0  0  0  0
   -6.8526  -20.8802   33.5795 H   0  0  0  0  0  0  0  0  0  0  0  0
   -7.2356  -19.8232   34.9699 H   0  0  0  0  0  0  0  0  0  0  0  0
   -7.0319  -19.3911   32.0140 H   0  0  0  0  0  0  0  0  0  0  0  0
   -5.9723  -19.0604   33.1686 H   0  0  0  0  0  0  0  0  0  0  0  0
  1  2  2  0
  2  3  1  0
  3  4  2  0
  4  5  1  0
  5  6  2  0
  6  7  1  0
  7  8  1  0
  8  9  1  0
  9 10  2  0
 10 11  1  0
  2 12  1  0
 12 13  1  0
 13 14  1  0
 14 15  1  0
 15 16  1  0
 16 17  1  0
 17 18  2  0
 18 19  1  0
 19 20  2  0
 20 21  1  0
 21 22  2  0
 16 23  1  0
 23 24  1  0
 11  3  1  0
 24 12  1  0
 11  7  2  0
 22 17  1  0
  4 25  1  0
  5 26  1  0
  6 27  1  0
  8 28  1  0
  9 29  1  0
 10 30  1  0
 13 31  1  0
 13 32  1  0
 14 33  1  0
 14 34  1  0
 15 35  1  0
 15 36  1  0
 19 37  1  0
 20 38  1  0
 21 39  1  0
 23 40  1  0
 23 41  1  0
 24 42  1  0
 24 43  1  0
M  END
>  <Energy>  (1255) 
1922.3011530368774

>  <compound_id>  (1255) 
75208

>  <target_id>  (1255) 
1

>  <reference_id>  (1255) 
40

>  <inspiration_ids>  (1255) 
[40, 54]

>  <energy_score>  (1255) 
1911.5784532750877

>  <distance_score>  (1255) 
6.102644248432804

>  <path>  (1255) 
/opt/xchem-fragalysis-2/maxwin/BulkDock/SCRATCH/511017/C75208-P40/C75208-P40.minimised.mol

>  <scratch_subdir>  (1255) 
/opt/xchem-fragalysis-2/maxwin/BulkDock/SCRATCH/511017/C75208-P40

>  <fragmenstein_runtime>  (1255) 
18.35194754600525

>  <fragmenstein_outcome>  (1255) 
too moved

>  <fragmenstein_mode>  (1255) 
expansion

>  <fragmenstein_error>  (1255) 


$$$$
C75208-P54
     RDKit          3D

 43 46  0  0  0  0  0  0  0  0999 V2000
   -8.3245   -7.5201   32.9181 O   0  0  0  0  0  0  0  0  0  0  0  0
   -8.5324   -8.2112   32.0174 C   0  0  0  0  0  0  0  0  0  0  0  0
   -8.2919   -7.6233   30.6418 C   0  0  0  0  0  0  0  0  0  0  0  0
   -8.9780   -8.0964   29.5205 C   0  0  0  0  0  0  0  0  0  0  0  0
   -8.7191   -7.5790   28.2497 C   0  0  0  0  0  0  0  0  0  0  0  0
   -7.7452   -6.6030   28.0351 C   0  0  0  0  0  0  0  0  0  0  0  0
   -6.9928   -6.1949   29.1345 C   0  0  0  0  0  0  0  0  0  0  0  0
   -5.8800   -5.3813   29.1819 N   0  0  0  0  0  0  0  0  0  0  0  0
   -5.4512   -5.2586   30.4697 C   0  0  0  0  0  0  0  0  0  0  0  0
   -6.3756   -5.9023   31.2586 C   0  0  0  0  0  0  0  0  0  0  0  0
   -7.2716   -6.6365   30.4318 C   0  0  0  0  0  0  0  0  0  0  0  0
   -8.9438   -9.7585   31.9118 N   0  0  0  0  0  0  0  0  0  0  0  0
   -8.9907  -10.9285   33.4584 C   0  0  0  0  0  0  0  0  0  0  0  0
   -8.1390  -12.4588   33.4427 C   0  0  0  0  0  0  0  0  0  0  0  0
   -9.1693  -13.5397   33.6729 C   0  0  0  0  0  0  0  0  0  0  0  0
  -10.4152  -13.2710   32.9724 N   0  0  0  0  0  0  0  0  0  0  0  0
  -11.4663  -14.1128   33.3691 C   0  0  0  0  0  0  0  0  0  0  0  0
  -12.7205  -13.8456   32.9764 N   0  0  0  0  0  0  0  0  0  0  0  0
  -13.6846  -14.7267   33.3290 C   0  0  0  0  0  0  0  0  0  0  0  0
  -13.4569  -15.8868   34.0278 C   0  0  0  0  0  0  0  0  0  0  0  0
  -12.1478  -16.1049   34.3521 C   0  0  0  0  0  0  0  0  0  0  0  0
  -11.1683  -15.2289   34.0627 N   0  0  0  0  0  0  0  0  0  0  0  0
  -10.7706  -11.9039   32.5558 C   0  0  0  0  0  0  0  0  0  0  0  0
   -9.2943  -10.7187   32.7809 C   0  0  0  0  0  0  0  0  0  0  0  0
   -9.7343   -8.8688   29.6310 H   0  0  0  0  0  0  0  0  0  0  0  0
   -9.2784   -7.9603   27.3971 H   0  0  0  0  0  0  0  0  0  0  0  0
   -7.5453   -6.2413   27.0306 H   0  0  0  0  0  0  0  0  0  0  0  0
   -5.4462   -4.9610   28.3715 H   0  0  0  0  0  0  0  0  0  0  0  0
   -4.5684   -4.6906   30.7313 H   0  0  0  0  0  0  0  0  0  0  0  0
   -6.4004   -5.8936   32.3327 H   0  0  0  0  0  0  0  0  0  0  0  0
   -8.0538  -10.3639   34.0373 H   0  0  0  0  0  0  0  0  0  0  0  0
   -9.6749  -10.7306   34.4981 H   0  0  0  0  0  0  0  0  0  0  0  0
   -7.6070  -12.5878   32.4924 H   0  0  0  0  0  0  0  0  0  0  0  0
   -7.3957  -12.4489   34.2488 H   0  0  0  0  0  0  0  0  0  0  0  0
   -9.3399  -13.6056   34.7554 H   0  0  0  0  0  0  0  0  0  0  0  0
   -8.7389  -14.4775   33.3130 H   0  0  0  0  0  0  0  0  0  0  0  0
  -14.6864  -14.4572   33.0079 H   0  0  0  0  0  0  0  0  0  0  0  0
  -14.2408  -16.5857   34.2779 H   0  0  0  0  0  0  0  0  0  0  0  0
  -11.8235  -17.0047   34.8630 H   0  0  0  0  0  0  0  0  0  0  0  0
  -11.0691  -11.8545   31.5006 H   0  0  0  0  0  0  0  0  0  0  0  0
  -11.5695  -11.4927   33.1913 H   0  0  0  0  0  0  0  0  0  0  0  0
   -9.0447  -11.3283   31.7226 H   0  0  0  0  0  0  0  0  0  0  0  0
  -10.2933   -9.9415   32.8179 H   0  0  0  0  0  0  0  0  0  0  0  0
  1  2  2  0
  2  3  1  0
  3  4  2  0
  4  5  1  0
  5  6  2  0
  6  7  1  0
  7  8  1  0
  8  9  1  0
  9 10  2  0
 10 11  1  0
  2 12  1  0
 12 13  1  0
 13 14  1  0
 14 15  1  0
 15 16  1  0
 16 17  1  0
 17 18  2  0
 18 19  1  0
 19 20  2  0
 20 21  1  0
 21 22  2  0
 16 23  1  0
 23 24  1  0
 11  3  1  0
 24 12  1  0
 11  7  2  0
 22 17  1  0
  4 25  1  0
  5 26  1  0
  6 27  1  0
  8 28  1  0
  9 29  1  0
 10 30  1  0
 13 31  1  0
 13 32  1  0
 14 33  1  0
 14 34  1  0
 15 35  1  0
 15 36  1  0
 19 37  1  0
 20 38  1  0
 21 39  1  0
 23 40  1  0
 23 41  1  0
 24 42  1  0
 24 43  1  0
M  END
>  <Energy>  (1256) 
741.73865338869666

>  <compound_id>  (1256) 
75208

>  <target_id>  (1256) 
1

>  <reference_id>  (1256) 
54

>  <inspiration_ids>  (1256) 
[40, 54]

>  <energy_score>  (1256) 
731.0159536269333

>  <distance_score>  (1256) 
9.787397166970328

>  <path>  (1256) 
/opt/xchem-fragalysis-2/maxwin/BulkDock/SCRATCH/511017/C75208-P54/C75208-P54.minimised.mol

>  <scratch_subdir>  (1256) 
/opt/xchem-fragalysis-2/maxwin/BulkDock/SCRATCH/511017/C75208-P54

>  <fragmenstein_runtime>  (1256) 
26.57530426979065

>  <fragmenstein_outcome>  (1256) 
too moved

>  <fragmenstein_mode>  (1256) 
expansion

>  <fragmenstein_error>  (1256) 


$$$$
C75210-P40
     RDKit          3D

 46 49  0  0  0  0  0  0  0  0999 V2000
   -4.2172  -16.1794   31.7193 O   0  0  0  0  0  0  0  0  0  0  0  0
   -5.4098  -15.9542   31.4635 C   0  0  0  0  0  0  0  0  0  0  0  0
   -5.5438  -14.1148   30.4082 C   0  0  0  0  0  0  0  0  0  0  0  0
   -4.3960  -12.6678   29.4186 N   0  0  0  0  0  0  0  0  0  0  0  0
   -4.0587  -11.9845   28.2777 C   0  0  0  0  0  0  0  0  0  0  0  0
   -2.6534  -11.9675   28.3899 C   0  0  0  0  0  0  0  0  0  0  0  0
   -2.1103  -11.2443   29.4212 C   0  0  0  0  0  0  0  0  0  0  0  0
   -0.9857  -10.1930   29.7953 C   0  0  0  0  0  0  0  0  0  0  0  0
   -0.8840   -9.1795   30.8342 C   0  0  0  0  0  0  0  0  0  0  0  0
   -1.9347   -9.0075   31.6553 C   0  0  0  0  0  0  0  0  0  0  0  0
   -3.0709   -9.7652   31.1832 C   0  0  0  0  0  0  0  0  0  0  0  0
   -3.3264  -11.2759   30.0149 C   0  0  0  0  0  0  0  0  0  0  0  0
   -6.7993  -17.2927   32.0802 N   0  0  0  0  0  0  0  0  0  0  0  0
   -6.7251  -18.3455   32.8423 C   0  0  0  0  0  0  0  0  0  0  0  0
   -8.3599  -18.3143   33.9948 C   0  0  0  0  0  0  0  0  0  0  0  0
   -9.4881  -19.2140   33.9166 C   0  0  0  0  0  0  0  0  0  0  0  0
   -9.0408  -20.5852   33.8341 N   0  0  0  0  0  0  0  0  0  0  0  0
   -9.8342  -21.4364   32.3300 C   0  0  0  0  0  0  0  0  0  0  0  0
  -10.6406  -20.6825   31.1943 N   0  0  0  0  0  0  0  0  0  0  0  0
  -11.3467  -21.1481   30.1894 C   0  0  0  0  0  0  0  0  0  0  0  0
  -11.7558  -22.3159   30.4270 C   0  0  0  0  0  0  0  0  0  0  0  0
  -11.1979  -23.0125   31.5456 C   0  0  0  0  0  0  0  0  0  0  0  0
  -10.2620  -22.7316   32.4263 N   0  0  0  0  0  0  0  0  0  0  0  0
   -7.4768  -20.4925   33.9462 C   0  0  0  0  0  0  0  0  0  0  0  0
   -6.5958  -19.1712   32.9308 C   0  0  0  0  0  0  0  0  0  0  0  0
   -4.5174  -14.5164   30.4347 H   0  0  0  0  0  0  0  0  0  0  0  0
   -6.1861  -14.2700   29.5465 H   0  0  0  0  0  0  0  0  0  0  0  0
   -4.6687  -12.0016   27.3901 H   0  0  0  0  0  0  0  0  0  0  0  0
   -2.3695  -12.9596   28.7338 H   0  0  0  0  0  0  0  0  0  0  0  0
   -0.2637  -10.0224   29.0157 H   0  0  0  0  0  0  0  0  0  0  0  0
   -0.0587   -8.4737   30.8487 H   0  0  0  0  0  0  0  0  0  0  0  0
   -2.0216   -8.1986   32.3665 H   0  0  0  0  0  0  0  0  0  0  0  0
   -3.9821   -9.1392   31.4527 H   0  0  0  0  0  0  0  0  0  0  0  0
   -5.6122  -17.8519   32.9298 H   0  0  0  0  0  0  0  0  0  0  0  0
   -7.3019  -17.4160   33.1458 H   0  0  0  0  0  0  0  0  0  0  0  0
   -8.8419  -17.3241   34.0161 H   0  0  0  0  0  0  0  0  0  0  0  0
   -8.2010  -18.5630   35.0746 H   0  0  0  0  0  0  0  0  0  0  0  0
  -10.1595  -18.9164   33.1560 H   0  0  0  0  0  0  0  0  0  0  0  0
  -10.0038  -19.0599   34.8868 H   0  0  0  0  0  0  0  0  0  0  0  0
  -11.7184  -20.6256   29.3368 H   0  0  0  0  0  0  0  0  0  0  0  0
  -12.4776  -22.6518   29.7207 H   0  0  0  0  0  0  0  0  0  0  0  0
  -11.2193  -24.0381   31.7871 H   0  0  0  0  0  0  0  0  0  0  0  0
   -7.2249  -20.2912   34.9981 H   0  0  0  0  0  0  0  0  0  0  0  0
   -6.9681  -21.4404   33.7669 H   0  0  0  0  0  0  0  0  0  0  0  0
   -6.7524  -19.9911   32.0791 H   0  0  0  0  0  0  0  0  0  0  0  0
   -5.4821  -19.6215   33.1739 H   0  0  0  0  0  0  0  0  0  0  0  0
  1  2  2  0
  2  3  1  0
  3  4  1  0
  4  5  1  0
  5  6  2  0
  6  7  1  0
  7  8  2  0
  8  9  1  0
  9 10  2  0
 10 11  1  0
 11 12  2  0
  2 13  1  0
 13 14  1  0
 14 15  1  0
 15 16  1  0
 16 17  1  0
 17 18  1  0
 18 19  2  0
 19 20  1  0
 20 21  2  0
 21 22  1  0
 22 23  2  0
 17 24  1  0
 24 25  1  0
 12  4  1  0
 25 13  1  0
 12  7  1  0
 23 18  1  0
  3 26  1  0
  3 27  1  0
  5 28  1  0
  6 29  1  0
  8 30  1  0
  9 31  1  0
 10 32  1  0
 11 33  1  0
 14 34  1  0
 14 35  1  0
 15 36  1  0
 15 37  1  0
 16 38  1  0
 16 39  1  0
 20 40  1  0
 21 41  1  0
 22 42  1  0
 24 43  1  0
 24 44  1  0
 25 45  1  0
 25 46  1  0
M  END
>  <Energy>  (1257) 
1912.0552861753306

>  <compound_id>  (1257) 
75210

>  <target_id>  (1257) 
1

>  <reference_id>  (1257) 
40

>  <inspiration_ids>  (1257) 
[40, 54]

>  <energy_score>  (1257) 
1902.2391003113094

>  <distance_score>  (1257) 
5.092172639865303

>  <path>  (1257) 
/opt/xchem-fragalysis-2/maxwin/BulkDock/SCRATCH/511017/C75210-P40/C75210-P40.minimised.mol

>  <scratch_subdir>  (1257) 
/opt/xchem-fragalysis-2/maxwin/BulkDock/SCRATCH/511017/C75210-P40

>  <fragmenstein_runtime>  (1257) 
22.801909685134888

>  <fragmenstein_outcome>  (1257) 
too moved

>  <fragmenstein_mode>  (1257) 
expansion

>  <fragmenstein_error>  (1257) 


$$$$
C75210-P54
     RDKit          3D

 46 49  0  0  0  0  0  0  0  0999 V2000
   -4.4444  -13.3575   31.0526 O   0  0  0  0  0  0  0  0  0  0  0  0
   -4.7012  -12.4982   31.7658 C   0  0  0  0  0  0  0  0  0  0  0  0
   -3.1416  -11.0097   31.7091 C   0  0  0  0  0  0  0  0  0  0  0  0
   -1.7871   -9.6799   30.9691 N   0  0  0  0  0  0  0  0  0  0  0  0
   -1.0427   -9.7884   29.3135 C   0  0  0  0  0  0  0  0  0  0  0  0
   -1.7760   -8.5830   28.1511 C   0  0  0  0  0  0  0  0  0  0  0  0
   -2.5201   -7.2745   29.1993 C   0  0  0  0  0  0  0  0  0  0  0  0
   -2.8983   -5.9318   28.9177 C   0  0  0  0  0  0  0  0  0  0  0  0
   -3.2162   -5.0464   29.9098 C   0  0  0  0  0  0  0  0  0  0  0  0
   -2.9199   -5.4212   31.1808 C   0  0  0  0  0  0  0  0  0  0  0  0
   -2.3530   -6.7057   31.4957 C   0  0  0  0  0  0  0  0  0  0  0  0
   -2.2069   -7.8533   30.7907 C   0  0  0  0  0  0  0  0  0  0  0  0
   -6.0354  -12.2871   32.9450 N   0  0  0  0  0  0  0  0  0  0  0  0
   -7.6129  -13.1921   33.4741 C   0  0  0  0  0  0  0  0  0  0  0  0
   -9.2890  -13.2167   32.9955 C   0  0  0  0  0  0  0  0  0  0  0  0
   -9.8870  -14.3960   33.6595 C   0  0  0  0  0  0  0  0  0  0  0  0
   -9.2649  -15.5095   32.9613 N   0  0  0  0  0  0  0  0  0  0  0  0
  -10.1907  -16.6435   33.0249 C   0  0  0  0  0  0  0  0  0  0  0  0
  -11.2405  -16.5737   33.8775 N   0  0  0  0  0  0  0  0  0  0  0  0
  -12.0831  -17.6318   34.0068 C   0  0  0  0  0  0  0  0  0  0  0  0
  -11.9739  -18.8184   33.3375 C   0  0  0  0  0  0  0  0  0  0  0  0
  -10.9556  -18.8218   32.4435 C   0  0  0  0  0  0  0  0  0  0  0  0
  -10.1140  -17.7668   32.2740 N   0  0  0  0  0  0  0  0  0  0  0  0
   -7.6211  -15.3243   32.8496 C   0  0  0  0  0  0  0  0  0  0  0  0
   -7.0483  -13.5028   33.2312 C   0  0  0  0  0  0  0  0  0  0  0  0
   -2.4864  -11.6929   31.0773 H   0  0  0  0  0  0  0  0  0  0  0  0
   -2.4010  -11.3177   32.4679 H   0  0  0  0  0  0  0  0  0  0  0  0
   -0.5743  -10.7527   29.1943 H   0  0  0  0  0  0  0  0  0  0  0  0
   -1.6423   -8.2837   27.1148 H   0  0  0  0  0  0  0  0  0  0  0  0
   -2.7758   -5.4879   27.9430 H   0  0  0  0  0  0  0  0  0  0  0  0
   -3.4837   -4.0213   29.6798 H   0  0  0  0  0  0  0  0  0  0  0  0
   -2.9478   -4.6507   31.9526 H   0  0  0  0  0  0  0  0  0  0  0  0
   -1.5160   -6.6828   32.1404 H   0  0  0  0  0  0  0  0  0  0  0  0
   -7.6693  -13.5428   34.7972 H   0  0  0  0  0  0  0  0  0  0  0  0
   -7.8813  -12.1510   34.0652 H   0  0  0  0  0  0  0  0  0  0  0  0
   -9.3711  -13.1963   31.9057 H   0  0  0  0  0  0  0  0  0  0  0  0
   -9.8811  -12.4293   33.4763 H   0  0  0  0  0  0  0  0  0  0  0  0
   -9.6790  -14.3484   34.7358 H   0  0  0  0  0  0  0  0  0  0  0  0
  -10.9809  -14.3143   33.6187 H   0  0  0  0  0  0  0  0  0  0  0  0
  -12.9117  -17.4537   34.6793 H   0  0  0  0  0  0  0  0  0  0  0  0
  -12.6537  -19.6457   33.4739 H   0  0  0  0  0  0  0  0  0  0  0  0
  -10.7697  -19.6781   31.8081 H   0  0  0  0  0  0  0  0  0  0  0  0
   -7.1079  -15.9508   33.5807 H   0  0  0  0  0  0  0  0  0  0  0  0
   -7.1935  -15.5553   31.8729 H   0  0  0  0  0  0  0  0  0  0  0  0
   -6.1167  -14.0848   33.8104 H   0  0  0  0  0  0  0  0  0  0  0  0
   -6.7374  -13.7039   32.0322 H   0  0  0  0  0  0  0  0  0  0  0  0
  1  2  2  0
  2  3  1  0
  3  4  1  0
  4  5  1  0
  5  6  2  0
  6  7  1  0
  7  8  2  0
  8  9  1  0
  9 10  2  0
 10 11  1  0
 11 12  2  0
  2 13  1  0
 13 14  1  0
 14 15  1  0
 15 16  1  0
 16 17  1  0
 17 18  1  0
 18 19  2  0
 19 20  1  0
 20 21  2  0
 21 22  1  0
 22 23  2  0
 17 24  1  0
 24 25  1  0
 12  4  1  0
 25 13  1  0
 12  7  1  0
 23 18  1  0
  3 26  1  0
  3 27  1  0
  5 28  1  0
  6 29  1  0
  8 30  1  0
  9 31  1  0
 10 32  1  0
 11 33  1  0
 14 34  1  0
 14 35  1  0
 15 36  1  0
 15 37  1  0
 16 38  1  0
 16 39  1  0
 20 40  1  0
 21 41  1  0
 22 42  1  0
 24 43  1  0
 24 44  1  0
 25 45  1  0
 25 46  1  0
M  END
>  <Energy>  (1258) 
1400.2764423782596

>  <compound_id>  (1258) 
75210

>  <target_id>  (1258) 
1

>  <reference_id>  (1258) 
54

>  <inspiration_ids>  (1258) 
[40, 54]

>  <energy_score>  (1258) 
1390.4602565142718

>  <distance_score>  (1258) 
6.817535774386113

>  <path>  (1258) 
/opt/xchem-fragalysis-2/maxwin/BulkDock/SCRATCH/511017/C75210-P54/C75210-P54.minimised.mol

>  <scratch_subdir>  (1258) 
/opt/xchem-fragalysis-2/maxwin/BulkDock/SCRATCH/511017/C75210-P54

>  <fragmenstein_runtime>  (1258) 
18.56816577911377

>  <fragmenstein_outcome>  (1258) 
too moved

>  <fragmenstein_mode>  (1258) 
expansion

>  <fragmenstein_error>  (1258) 


$$$$
C75211-P40
     RDKit          3D

 49 52  0  0  0  0  0  0  0  0999 V2000
   -3.9705  -16.4280   31.6990 O   0  0  0  0  0  0  0  0  0  0  0  0
   -5.1080  -15.9806   31.5498 C   0  0  0  0  0  0  0  0  0  0  0  0
   -4.9734  -14.1522   30.4725 C   0  0  0  0  0  0  0  0  0  0  0  0
   -3.7368  -12.5347   29.4585 C   0  0  0  0  0  0  0  0  0  0  0  0
   -2.2498  -11.2239   29.7547 N   0  0  0  0  0  0  0  0  0  0  0  0
   -1.3107  -10.4964   28.8093 C   0  0  0  0  0  0  0  0  0  0  0  0
   -0.3976   -9.5223   29.1509 C   0  0  0  0  0  0  0  0  0  0  0  0
   -0.6381   -9.0591   30.3785 C   0  0  0  0  0  0  0  0  0  0  0  0
   -0.1248   -7.8546   30.9610 C   0  0  0  0  0  0  0  0  0  0  0  0
   -0.4841   -7.4440   32.2118 C   0  0  0  0  0  0  0  0  0  0  0  0
   -1.5456   -8.1001   32.7329 C   0  0  0  0  0  0  0  0  0  0  0  0
   -2.1673   -9.1442   31.9983 C   0  0  0  0  0  0  0  0  0  0  0  0
   -1.5905   -9.9717   30.9177 C   0  0  0  0  0  0  0  0  0  0  0  0
   -6.6406  -17.1624   32.1663 N   0  0  0  0  0  0  0  0  0  0  0  0
   -6.6757  -18.4722   32.9384 C   0  0  0  0  0  0  0  0  0  0  0  0
   -8.3991  -18.0332   33.8323 C   0  0  0  0  0  0  0  0  0  0  0  0
   -9.4858  -19.0636   33.9855 C   0  0  0  0  0  0  0  0  0  0  0  0
   -9.1355  -20.4838   33.8174 N   0  0  0  0  0  0  0  0  0  0  0  0
   -9.8653  -21.3851   32.3170 C   0  0  0  0  0  0  0  0  0  0  0  0
  -10.6656  -20.6520   31.1783 N   0  0  0  0  0  0  0  0  0  0  0  0
  -11.3644  -21.1282   30.1680 C   0  0  0  0  0  0  0  0  0  0  0  0
  -11.7522  -22.3082   30.3726 C   0  0  0  0  0  0  0  0  0  0  0  0
  -11.2173  -22.9761   31.5098 C   0  0  0  0  0  0  0  0  0  0  0  0
  -10.3037  -22.6701   32.4105 N   0  0  0  0  0  0  0  0  0  0  0  0
   -7.6183  -20.4436   33.9275 C   0  0  0  0  0  0  0  0  0  0  0  0
   -6.6805  -19.1107   32.8109 C   0  0  0  0  0  0  0  0  0  0  0  0
   -5.9213  -14.2066   29.9202 H   0  0  0  0  0  0  0  0  0  0  0  0
   -4.0309  -14.7936   30.3477 H   0  0  0  0  0  0  0  0  0  0  0  0
   -2.7999  -13.0235   29.1523 H   0  0  0  0  0  0  0  0  0  0  0  0
   -4.2499  -11.9667   28.7108 H   0  0  0  0  0  0  0  0  0  0  0  0
   -1.5621  -10.9195   27.8482 H   0  0  0  0  0  0  0  0  0  0  0  0
    0.3140   -8.9252   28.6182 H   0  0  0  0  0  0  0  0  0  0  0  0
    0.5800   -7.2518   30.3966 H   0  0  0  0  0  0  0  0  0  0  0  0
   -0.0499   -6.5756   32.6906 H   0  0  0  0  0  0  0  0  0  0  0  0
   -1.9980   -7.7296   33.6467 H   0  0  0  0  0  0  0  0  0  0  0  0
   -3.2375   -9.0303   32.0859 H   0  0  0  0  0  0  0  0  0  0  0  0
   -5.5285  -17.9435   32.9623 H   0  0  0  0  0  0  0  0  0  0  0  0
   -6.4439  -19.0874   34.3117 H   0  0  0  0  0  0  0  0  0  0  0  0
   -8.4429  -17.6489   34.8748 H   0  0  0  0  0  0  0  0  0  0  0  0
   -8.8674  -17.1276   33.4527 H   0  0  0  0  0  0  0  0  0  0  0  0
  -10.2902  -18.7386   33.3738 H   0  0  0  0  0  0  0  0  0  0  0  0
   -9.8525  -18.9729   35.0228 H   0  0  0  0  0  0  0  0  0  0  0  0
  -11.7431  -20.6028   29.3196 H   0  0  0  0  0  0  0  0  0  0  0  0
  -12.4162  -22.6624   29.6199 H   0  0  0  0  0  0  0  0  0  0  0  0
  -11.2172  -24.0031   31.7605 H   0  0  0  0  0  0  0  0  0  0  0  0
   -7.1040  -21.3889   33.7565 H   0  0  0  0  0  0  0  0  0  0  0  0
   -7.4327  -20.2780   35.0057 H   0  0  0  0  0  0  0  0  0  0  0  0
   -6.9291  -19.8417   31.8729 H   0  0  0  0  0  0  0  0  0  0  0  0
   -5.5230  -19.7860   32.9703 H   0  0  0  0  0  0  0  0  0  0  0  0
  1  2  2  0
  2  3  1  0
  3  4  1  0
  4  5  1  0
  5  6  1  0
  6  7  2  0
  7  8  1  0
  8  9  2  0
  9 10  1  0
 10 11  2  0
 11 12  1  0
 12 13  2  0
  2 14  1  0
 14 15  1  0
 15 16  1  0
 16 17  1  0
 17 18  1  0
 18 19  1  0
 19 20  2  0
 20 21  1  0
 21 22  2  0
 22 23  1  0
 23 24  2  0
 18 25  1  0
 25 26  1  0
 13  5  1  0
 26 14  1  0
 13  8  1  0
 24 19  1  0
  3 27  1  0
  3 28  1  0
  4 29  1  0
  4 30  1  0
  6 31  1  0
  7 32  1  0
  9 33  1  0
 10 34  1  0
 11 35  1  0
 12 36  1  0
 15 37  1  0
 15 38  1  0
 16 39  1  0
 16 40  1  0
 17 41  1  0
 17 42  1  0
 21 43  1  0
 22 44  1  0
 23 45  1  0
 25 46  1  0
 25 47  1  0
 26 48  1  0
 26 49  1  0
M  END
>  <Energy>  (1259) 
1900.8858264232642

>  <compound_id>  (1259) 
75211

>  <target_id>  (1259) 
1

>  <reference_id>  (1259) 
40

>  <inspiration_ids>  (1259) 
[40, 54]

>  <energy_score>  (1259) 
1924.9063243144624

>  <distance_score>  (1259) 
4.1802152334478295

>  <path>  (1259) 
/opt/xchem-fragalysis-2/maxwin/BulkDock/SCRATCH/511017/C75211-P40/C75211-P40.minimised.mol

>  <scratch_subdir>  (1259) 
/opt/xchem-fragalysis-2/maxwin/BulkDock/SCRATCH/511017/C75211-P40

>  <fragmenstein_runtime>  (1259) 
20.372251987457275

>  <fragmenstein_outcome>  (1259) 
too moved

>  <fragmenstein_mode>  (1259) 
expansion

>  <fragmenstein_error>  (1259) 


$$$$
C75211-P54
     RDKit          3D

 49 52  0  0  0  0  0  0  0  0999 V2000
   -4.9071  -12.0190   32.1555 O   0  0  0  0  0  0  0  0  0  0  0  0
   -4.5859  -12.9184   31.5088 C   0  0  0  0  0  0  0  0  0  0  0  0
   -2.7436  -12.8351   30.6342 C   0  0  0  0  0  0  0  0  0  0  0  0
   -1.1727  -12.2804   29.5673 C   0  0  0  0  0  0  0  0  0  0  0  0
   -0.1236  -10.9818   29.4890 N   0  0  0  0  0  0  0  0  0  0  0  0
   -0.8039   -9.9132   29.3924 C   0  0  0  0  0  0  0  0  0  0  0  0
   -0.8846   -9.5734   30.7069 C   0  0  0  0  0  0  0  0  0  0  0  0
    0.3904   -9.3100   31.1077 C   0  0  0  0  0  0  0  0  0  0  0  0
    1.0466   -8.6128   32.1389 C   0  0  0  0  0  0  0  0  0  0  0  0
    2.3132   -8.9136   32.5046 C   0  0  0  0  0  0  0  0  0  0  0  0
    2.8909   -9.7333   31.6265 C   0  0  0  0  0  0  0  0  0  0  0  0
    2.3514   -9.8923   30.2914 C   0  0  0  0  0  0  0  0  0  0  0  0
    0.9930  -10.1127   30.1981 C   0  0  0  0  0  0  0  0  0  0  0  0
   -5.2111  -14.2455   31.2319 N   0  0  0  0  0  0  0  0  0  0  0  0
   -6.5027  -14.5577   31.7081 C   0  0  0  0  0  0  0  0  0  0  0  0
   -7.8719  -13.4465   32.3496 C   0  0  0  0  0  0  0  0  0  0  0  0
   -8.9876  -14.0803   33.2062 C   0  0  0  0  0  0  0  0  0  0  0  0
   -8.9400  -15.4952   32.8933 N   0  0  0  0  0  0  0  0  0  0  0  0
  -10.0835  -16.3302   33.1066 C   0  0  0  0  0  0  0  0  0  0  0  0
  -11.0463  -15.9389   33.9628 N   0  0  0  0  0  0  0  0  0  0  0  0
  -12.0221  -16.8286   34.2660 C   0  0  0  0  0  0  0  0  0  0  0  0
  -12.1137  -18.1110   33.7731 C   0  0  0  0  0  0  0  0  0  0  0  0
  -11.1611  -18.4205   32.8536 C   0  0  0  0  0  0  0  0  0  0  0  0
  -10.1929  -17.5454   32.4982 N   0  0  0  0  0  0  0  0  0  0  0  0
   -7.4886  -15.9065   33.1128 C   0  0  0  0  0  0  0  0  0  0  0  0
   -6.6734  -15.2502   31.8014 C   0  0  0  0  0  0  0  0  0  0  0  0
   -2.5109  -13.8873   30.7534 H   0  0  0  0  0  0  0  0  0  0  0  0
   -2.3531  -12.0820   31.3477 H   0  0  0  0  0  0  0  0  0  0  0  0
   -1.4226  -12.3490   28.4954 H   0  0  0  0  0  0  0  0  0  0  0  0
   -0.4002  -13.0441   29.4659 H   0  0  0  0  0  0  0  0  0  0  0  0
   -1.3893   -9.6797   28.5508 H   0  0  0  0  0  0  0  0  0  0  0  0
   -1.7039   -9.0285   31.0974 H   0  0  0  0  0  0  0  0  0  0  0  0
    0.4869   -7.9526   32.7655 H   0  0  0  0  0  0  0  0  0  0  0  0
    2.7491   -8.6006   33.4399 H   0  0  0  0  0  0  0  0  0  0  0  0
    3.7440  -10.3113   31.9712 H   0  0  0  0  0  0  0  0  0  0  0  0
    2.6208   -8.9907   29.7285 H   0  0  0  0  0  0  0  0  0  0  0  0
   -6.0516  -14.1028   32.8750 H   0  0  0  0  0  0  0  0  0  0  0  0
   -6.5795  -13.5519   31.1254 H   0  0  0  0  0  0  0  0  0  0  0  0
   -8.3441  -13.0148   31.4590 H   0  0  0  0  0  0  0  0  0  0  0  0
   -7.3455  -12.6864   32.9415 H   0  0  0  0  0  0  0  0  0  0  0  0
   -9.9392  -13.5792   33.0177 H   0  0  0  0  0  0  0  0  0  0  0  0
   -8.7693  -13.8948   34.2662 H   0  0  0  0  0  0  0  0  0  0  0  0
  -12.7620  -16.4454   34.9605 H   0  0  0  0  0  0  0  0  0  0  0  0
  -12.8951  -18.7985   34.0593 H   0  0  0  0  0  0  0  0  0  0  0  0
  -11.1273  -19.3840   32.3589 H   0  0  0  0  0  0  0  0  0  0  0  0
   -7.3023  -16.9777   33.1758 H   0  0  0  0  0  0  0  0  0  0  0  0
   -7.0409  -15.4492   34.0115 H   0  0  0  0  0  0  0  0  0  0  0  0
   -5.8893  -16.2235   31.9598 H   0  0  0  0  0  0  0  0  0  0  0  0
   -6.9907  -15.8587   30.7527 H   0  0  0  0  0  0  0  0  0  0  0  0
  1  2  2  0
  2  3  1  0
  3  4  1  0
  4  5  1  0
  5  6  1  0
  6  7  2  0
  7  8  1  0
  8  9  2  0
  9 10  1  0
 10 11  2  0
 11 12  1  0
 12 13  2  0
  2 14  1  0
 14 15  1  0
 15 16  1  0
 16 17  1  0
 17 18  1  0
 18 19  1  0
 19 20  2  0
 20 21  1  0
 21 22  2  0
 22 23  1  0
 23 24  2  0
 18 25  1  0
 25 26  1  0
 13  5  1  0
 26 14  1  0
 13  8  1  0
 24 19  1  0
  3 27  1  0
  3 28  1  0
  4 29  1  0
  4 30  1  0
  6 31  1  0
  7 32  1  0
  9 33  1  0
 10 34  1  0
 11 35  1  0
 12 36  1  0
 15 37  1  0
 15 38  1  0
 16 39  1  0
 16 40  1  0
 17 41  1  0
 17 42  1  0
 21 43  1  0
 22 44  1  0
 23 45  1  0
 25 46  1  0
 25 47  1  0
 26 48  1  0
 26 49  1  0
M  END
>  <Energy>  (1260) 
1096.0672821417559

>  <compound_id>  (1260) 
75211

>  <target_id>  (1260) 
1

>  <reference_id>  (1260) 
54

>  <inspiration_ids>  (1260) 
[40, 54]

>  <energy_score>  (1260) 
1120.0877800329863

>  <distance_score>  (1260) 
7.069291277444892

>  <path>  (1260) 
/opt/xchem-fragalysis-2/maxwin/BulkDock/SCRATCH/511017/C75211-P54/C75211-P54.minimised.mol

>  <scratch_subdir>  (1260) 
/opt/xchem-fragalysis-2/maxwin/BulkDock/SCRATCH/511017/C75211-P54

>  <fragmenstein_runtime>  (1260) 
24.095779418945312

>  <fragmenstein_outcome>  (1260) 
too moved

>  <fragmenstein_mode>  (1260) 
expansion

>  <fragmenstein_error>  (1260) 


$$$$
C10869-P40
     RDKit          3D

 46 49  0  0  0  0  0  0  0  0999 V2000
  -12.4190  -14.3761   36.1677 O   0  0  0  0  0  0  0  0  0  0  0  0
  -12.1459  -14.7682   35.0483 C   0  0  0  0  0  0  0  0  0  0  0  0
  -12.5314  -13.6954   33.8617 C   0  0  0  0  0  0  0  0  0  0  0  0
  -11.7427  -12.2362   33.8757 C   0  0  0  0  0  0  0  0  0  0  0  0
  -11.3137  -11.5441   35.0196 C   0  0  0  0  0  0  0  0  0  0  0  0
  -10.2635  -10.5749   35.0074 C   0  0  0  0  0  0  0  0  0  0  0  0
   -9.7719  -10.1499   33.7731 C   0  0  0  0  0  0  0  0  0  0  0  0
   -8.6896   -9.3703   33.4194 N   0  0  0  0  0  0  0  0  0  0  0  0
   -8.7594   -9.0453   32.0912 C   0  0  0  0  0  0  0  0  0  0  0  0
   -9.8702   -9.6815   31.5788 C   0  0  0  0  0  0  0  0  0  0  0  0
  -10.4452  -10.4970   32.6087 C   0  0  0  0  0  0  0  0  0  0  0  0
  -11.4700  -11.5122   32.6938 C   0  0  0  0  0  0  0  0  0  0  0  0
  -11.4289  -16.0038   34.6037 N   0  0  0  0  0  0  0  0  0  0  0  0
  -10.7129  -17.1034   35.4206 C   0  0  0  0  0  0  0  0  0  0  0  0
   -9.8127  -18.4323   35.2053 C   0  0  0  0  0  0  0  0  0  0  0  0
   -9.3855  -19.1108   33.8491 C   0  0  0  0  0  0  0  0  0  0  0  0
  -10.6552  -19.3314   32.7083 N   0  0  0  0  0  0  0  0  0  0  0  0
  -11.0125  -20.5013   31.2754 C   0  0  0  0  0  0  0  0  0  0  0  0
  -10.4901  -21.0118   30.1916 N   0  0  0  0  0  0  0  0  0  0  0  0
  -10.9420  -21.6791   29.0729 C   0  0  0  0  0  0  0  0  0  0  0  0
  -12.1906  -21.7092   28.7887 C   0  0  0  0  0  0  0  0  0  0  0  0
  -12.7828  -21.4210   29.9454 C   0  0  0  0  0  0  0  0  0  0  0  0
  -12.2399  -20.9091   31.0897 N   0  0  0  0  0  0  0  0  0  0  0  0
  -12.0273  -18.6134   33.9063 C   0  0  0  0  0  0  0  0  0  0  0  0
  -12.4148  -17.1226   34.3774 C   0  0  0  0  0  0  0  0  0  0  0  0
  -12.3020  -14.1674   32.9003 H   0  0  0  0  0  0  0  0  0  0  0  0
  -13.6044  -13.4882   33.9228 H   0  0  0  0  0  0  0  0  0  0  0  0
  -11.7148  -11.8258   35.9964 H   0  0  0  0  0  0  0  0  0  0  0  0
   -9.8519  -10.2053   35.9412 H   0  0  0  0  0  0  0  0  0  0  0  0
   -7.9337   -9.1075   34.0428 H   0  0  0  0  0  0  0  0  0  0  0  0
   -8.0095   -8.4221   31.6226 H   0  0  0  0  0  0  0  0  0  0  0  0
  -10.1780   -9.6401   30.5435 H   0  0  0  0  0  0  0  0  0  0  0  0
  -12.0321  -11.7520   31.7973 H   0  0  0  0  0  0  0  0  0  0  0  0
   -9.7690  -16.5781   35.3098 H   0  0  0  0  0  0  0  0  0  0  0  0
  -11.0377  -17.0498   36.4704 H   0  0  0  0  0  0  0  0  0  0  0  0
  -10.2217  -19.2133   35.8676 H   0  0  0  0  0  0  0  0  0  0  0  0
   -8.8684  -18.2429   35.7416 H   0  0  0  0  0  0  0  0  0  0  0  0
   -9.0018  -20.0885   34.1598 H   0  0  0  0  0  0  0  0  0  0  0  0
   -8.5253  -18.5402   33.5078 H   0  0  0  0  0  0  0  0  0  0  0  0
  -10.2390  -22.1055   28.3774 H   0  0  0  0  0  0  0  0  0  0  0  0
  -12.5441  -22.0966   27.8575 H   0  0  0  0  0  0  0  0  0  0  0  0
  -13.8108  -21.6400   30.1619 H   0  0  0  0  0  0  0  0  0  0  0  0
  -11.8104  -18.9505   34.9409 H   0  0  0  0  0  0  0  0  0  0  0  0
  -12.9022  -19.2604   33.9802 H   0  0  0  0  0  0  0  0  0  0  0  0
  -13.0144  -17.2235   35.3049 H   0  0  0  0  0  0  0  0  0  0  0  0
  -13.1927  -16.7155   33.7088 H   0  0  0  0  0  0  0  0  0  0  0  0
  1  2  2  0
  2  3  1  0
  3  4  1  0
  4  5  2  0
  5  6  1  0
  6  7  2  0
  7  8  1  0
  8  9  1  0
  9 10  2  0
 10 11  1  0
 11 12  2  0
  2 13  1  0
 13 14  1  0
 14 15  1  0
 15 16  1  0
 16 17  1  0
 17 18  1  0
 18 19  2  0
 19 20  1  0
 20 21  2  0
 21 22  1  0
 22 23  2  0
 17 24  1  0
 24 25  1  0
 12  4  1  0
 25 13  1  0
 11  7  1  0
 23 18  1  0
  3 26  1  0
  3 27  1  0
  5 28  1  0
  6 29  1  0
  8 30  1  0
  9 31  1  0
 10 32  1  0
 12 33  1  0
 14 34  1  0
 14 35  1  0
 15 36  1  0
 15 37  1  0
 16 38  1  0
 16 39  1  0
 20 40  1  0
 21 41  1  0
 22 42  1  0
 24 43  1  0
 24 44  1  0
 25 45  1  0
 25 46  1  0
M  END
>  <Energy>  (1261) 
432.31675513876513

>  <compound_id>  (1261) 
10869

>  <target_id>  (1261) 
1

>  <reference_id>  (1261) 
40

>  <inspiration_ids>  (1261) 
[40, 54]

>  <energy_score>  (1261) 
422.7578149212029

>  <distance_score>  (1261) 
9.675800476168158

>  <path>  (1261) 
/opt/xchem-fragalysis-2/maxwin/BulkDock/SCRATCH/511017/C10869-P40/C10869-P40.minimised.mol

>  <scratch_subdir>  (1261) 
/opt/xchem-fragalysis-2/maxwin/BulkDock/SCRATCH/511017/C10869-P40

>  <fragmenstein_runtime>  (1261) 
21.169225454330444

>  <fragmenstein_outcome>  (1261) 
too moved

>  <fragmenstein_mode>  (1261) 
expansion

>  <fragmenstein_error>  (1261) 


$$$$
C10869-P54
     RDKit          3D

 46 49  0  0  0  0  0  0  0  0999 V2000
   -4.5191  -11.1927   35.3754 O   0  0  0  0  0  0  0  0  0  0  0  0
   -5.0138  -11.2037   34.2671 C   0  0  0  0  0  0  0  0  0  0  0  0
   -4.2254   -9.9875   32.9828 C   0  0  0  0  0  0  0  0  0  0  0  0
   -3.1175   -8.5742   32.2052 C   0  0  0  0  0  0  0  0  0  0  0  0
   -3.3035   -7.1250   32.0996 C   0  0  0  0  0  0  0  0  0  0  0  0
   -2.5942   -6.3034   31.0127 C   0  0  0  0  0  0  0  0  0  0  0  0
   -1.4361   -6.7198   30.1683 C   0  0  0  0  0  0  0  0  0  0  0  0
   -0.3544   -5.7152   28.8423 N   0  0  0  0  0  0  0  0  0  0  0  0
    0.8611   -7.1858   27.9292 C   0  0  0  0  0  0  0  0  0  0  0  0
    1.1241   -8.6402   29.4194 C   0  0  0  0  0  0  0  0  0  0  0  0
   -0.2103   -8.1028   30.9815 C   0  0  0  0  0  0  0  0  0  0  0  0
   -1.6362   -9.0328   31.1568 C   0  0  0  0  0  0  0  0  0  0  0  0
   -6.2520  -12.3076   33.7327 N   0  0  0  0  0  0  0  0  0  0  0  0
   -6.8494  -13.4579   34.3986 C   0  0  0  0  0  0  0  0  0  0  0  0
   -7.3497  -14.4216   33.3305 C   0  0  0  0  0  0  0  0  0  0  0  0
   -8.8088  -14.2487   33.0409 C   0  0  0  0  0  0  0  0  0  0  0  0
   -9.4996  -13.7561   34.1981 N   0  0  0  0  0  0  0  0  0  0  0  0
  -10.7827  -14.3064   34.3327 C   0  0  0  0  0  0  0  0  0  0  0  0
  -10.9260  -15.6388   34.1461 N   0  0  0  0  0  0  0  0  0  0  0  0
  -12.1263  -16.2217   34.2588 C   0  0  0  0  0  0  0  0  0  0  0  0
  -13.2527  -15.5096   34.5235 C   0  0  0  0  0  0  0  0  0  0  0  0
  -13.0353  -14.1672   34.7203 C   0  0  0  0  0  0  0  0  0  0  0  0
  -11.8285  -13.5500   34.6666 N   0  0  0  0  0  0  0  0  0  0  0  0
   -9.2025  -12.3784   34.5710 C   0  0  0  0  0  0  0  0  0  0  0  0
   -7.7819  -11.6865   34.0186 C   0  0  0  0  0  0  0  0  0  0  0  0
   -3.7549   -9.6160   33.9076 H   0  0  0  0  0  0  0  0  0  0  0  0
   -3.7205  -10.7874   32.4397 H   0  0  0  0  0  0  0  0  0  0  0  0
   -4.1668   -6.6092   32.5235 H   0  0  0  0  0  0  0  0  0  0  0  0
   -3.0008   -5.3033   30.8396 H   0  0  0  0  0  0  0  0  0  0  0  0
   -0.8938   -5.1963   28.1561 H   0  0  0  0  0  0  0  0  0  0  0  0
    0.2920   -7.3111   26.9694 H   0  0  0  0  0  0  0  0  0  0  0  0
    2.1064   -9.0558   29.7069 H   0  0  0  0  0  0  0  0  0  0  0  0
   -1.4419  -10.1058   30.9597 H   0  0  0  0  0  0  0  0  0  0  0  0
   -5.9754  -14.0401   34.6572 H   0  0  0  0  0  0  0  0  0  0  0  0
   -7.2740  -13.3637   35.4073 H   0  0  0  0  0  0  0  0  0  0  0  0
   -7.1264  -15.4490   33.6331 H   0  0  0  0  0  0  0  0  0  0  0  0
   -6.7877  -14.3067   32.3927 H   0  0  0  0  0  0  0  0  0  0  0  0
   -8.9482  -13.5407   32.2153 H   0  0  0  0  0  0  0  0  0  0  0  0
   -9.1543  -15.2366   32.7438 H   0  0  0  0  0  0  0  0  0  0  0  0
  -12.1357  -17.2967   34.1178 H   0  0  0  0  0  0  0  0  0  0  0  0
  -14.2286  -15.9619   34.6004 H   0  0  0  0  0  0  0  0  0  0  0  0
  -13.8637  -13.5050   34.9568 H   0  0  0  0  0  0  0  0  0  0  0  0
   -9.1894  -12.3118   35.6671 H   0  0  0  0  0  0  0  0  0  0  0  0
  -10.0005  -11.7048   34.2310 H   0  0  0  0  0  0  0  0  0  0  0  0
   -7.6424  -10.8944   34.7586 H   0  0  0  0  0  0  0  0  0  0  0  0
   -8.0808  -11.3308   33.0238 H   0  0  0  0  0  0  0  0  0  0  0  0
  1  2  2  0
  2  3  1  0
  3  4  1  0
  4  5  2  0
  5  6  1  0
  6  7  2  0
  7  8  1  0
  8  9  1  0
  9 10  2  0
 10 11  1  0
 11 12  2  0
  2 13  1  0
 13 14  1  0
 14 15  1  0
 15 16  1  0
 16 17  1  0
 17 18  1  0
 18 19  2  0
 19 20  1  0
 20 21  2  0
 21 22  1  0
 22 23  2  0
 17 24  1  0
 24 25  1  0
 12  4  1  0
 25 13  1  0
 11  7  1  0
 23 18  1  0
  3 26  1  0
  3 27  1  0
  5 28  1  0
  6 29  1  0
  8 30  1  0
  9 31  1  0
 10 32  1  0
 12 33  1  0
 14 34  1  0
 14 35  1  0
 15 36  1  0
 15 37  1  0
 16 38  1  0
 16 39  1  0
 20 40  1  0
 21 41  1  0
 22 42  1  0
 24 43  1  0
 24 44  1  0
 25 45  1  0
 25 46  1  0
M  END
>  <Energy>  (1262) 
1179.5547645278182

>  <compound_id>  (1262) 
10869

>  <target_id>  (1262) 
1

>  <reference_id>  (1262) 
54

>  <inspiration_ids>  (1262) 
[40, 54]

>  <energy_score>  (1262) 
1169.995824310282

>  <distance_score>  (1262) 
7.9855352201215775

>  <path>  (1262) 
/opt/xchem-fragalysis-2/maxwin/BulkDock/SCRATCH/511017/C10869-P54/C10869-P54.minimised.mol

>  <scratch_subdir>  (1262) 
/opt/xchem-fragalysis-2/maxwin/BulkDock/SCRATCH/511017/C10869-P54

>  <fragmenstein_runtime>  (1262) 
23.571441888809204

>  <fragmenstein_outcome>  (1262) 
too moved

>  <fragmenstein_mode>  (1262) 
expansion

>  <fragmenstein_error>  (1262) 


$$$$
C75212-P40
     RDKit          3D

 43 46  0  0  0  0  0  0  0  0999 V2000
   -3.3661  -15.7697   31.8321 O   0  0  0  0  0  0  0  0  0  0  0  0
   -4.0756  -15.5585   30.9408 C   0  0  0  0  0  0  0  0  0  0  0  0
   -3.0704  -14.5023   29.5734 C   0  0  0  0  0  0  0  0  0  0  0  0
   -2.3104  -14.9085   28.3094 C   0  0  0  0  0  0  0  0  0  0  0  0
   -2.4471  -13.8058   27.0125 N   0  0  0  0  0  0  0  0  0  0  0  0
   -2.7500  -12.2114   27.7703 C   0  0  0  0  0  0  0  0  0  0  0  0
   -1.8865  -11.1377   27.5719 C   0  0  0  0  0  0  0  0  0  0  0  0
   -0.9582  -10.1427   28.6838 C   0  0  0  0  0  0  0  0  0  0  0  0
   -1.1064  -10.3115   29.9542 C   0  0  0  0  0  0  0  0  0  0  0  0
   -1.8471  -11.4681   29.9219 C   0  0  0  0  0  0  0  0  0  0  0  0
   -2.8006  -12.5738   29.1892 C   0  0  0  0  0  0  0  0  0  0  0  0
   -5.8484  -16.3568   30.9149 N   0  0  0  0  0  0  0  0  0  0  0  0
   -6.7608  -17.3723   32.3925 C   0  0  0  0  0  0  0  0  0  0  0  0
   -8.3373  -17.7184   33.6946 C   0  0  0  0  0  0  0  0  0  0  0  0
   -9.1621  -19.1144   34.0312 C   0  0  0  0  0  0  0  0  0  0  0  0
   -8.5646  -20.5280   33.7703 N   0  0  0  0  0  0  0  0  0  0  0  0
   -9.7319  -21.3942   32.4218 C   0  0  0  0  0  0  0  0  0  0  0  0
  -10.5860  -20.6630   31.2672 N   0  0  0  0  0  0  0  0  0  0  0  0
  -11.3123  -21.1566   30.2788 C   0  0  0  0  0  0  0  0  0  0  0  0
  -11.7301  -22.3232   30.5315 C   0  0  0  0  0  0  0  0  0  0  0  0
  -11.1459  -23.0400   31.6250 C   0  0  0  0  0  0  0  0  0  0  0  0
  -10.1512  -22.7460   32.4576 N   0  0  0  0  0  0  0  0  0  0  0  0
   -6.9585  -19.6386   33.0384 C   0  0  0  0  0  0  0  0  0  0  0  0
   -6.7852  -17.7884   32.1013 C   0  0  0  0  0  0  0  0  0  0  0  0
   -2.0222  -15.8615   27.8806 H   0  0  0  0  0  0  0  0  0  0  0  0
   -1.9449  -13.8401   26.1401 H   0  0  0  0  0  0  0  0  0  0  0  0
   -2.1017  -10.8165   26.5449 H   0  0  0  0  0  0  0  0  0  0  0  0
   -0.4910   -9.1701   28.5308 H   0  0  0  0  0  0  0  0  0  0  0  0
   -0.7805   -9.7444   30.7990 H   0  0  0  0  0  0  0  0  0  0  0  0
   -1.2350  -11.8491   30.7667 H   0  0  0  0  0  0  0  0  0  0  0  0
   -6.3433  -16.2122   32.4955 H   0  0  0  0  0  0  0  0  0  0  0  0
   -7.9281  -16.6074   32.4897 H   0  0  0  0  0  0  0  0  0  0  0  0
   -9.2157  -17.0410   33.4762 H   0  0  0  0  0  0  0  0  0  0  0  0
   -8.3612  -17.2317   34.6998 H   0  0  0  0  0  0  0  0  0  0  0  0
   -9.4358  -19.0872   35.0923 H   0  0  0  0  0  0  0  0  0  0  0  0
  -10.0347  -18.9451   33.4357 H   0  0  0  0  0  0  0  0  0  0  0  0
  -11.6704  -20.6528   29.4062 H   0  0  0  0  0  0  0  0  0  0  0  0
  -12.5065  -22.6303   29.8622 H   0  0  0  0  0  0  0  0  0  0  0  0
  -11.1854  -24.0662   31.8551 H   0  0  0  0  0  0  0  0  0  0  0  0
   -6.4615  -20.4191   32.4808 H   0  0  0  0  0  0  0  0  0  0  0  0
   -6.4252  -19.6345   33.9691 H   0  0  0  0  0  0  0  0  0  0  0  0
   -7.6962  -18.3475   31.4387 H   0  0  0  0  0  0  0  0  0  0  0  0
   -6.8196  -18.2356   30.8434 H   0  0  0  0  0  0  0  0  0  0  0  0
  1  2  2  0
  2  3  1  0
  3  4  2  0
  4  5  1  0
  5  6  1  0
  6  7  2  0
  7  8  1  0
  8  9  2  0
  9 10  1  0
 10 11  2  0
  2 12  1  0
 12 13  1  0
 13 14  1  0
 14 15  1  0
 15 16  1  0
 16 17  1  0
 17 18  2  0
 18 19  1  0
 19 20  2  0
 20 21  1  0
 21 22  2  0
 16 23  1  0
 23 24  1  0
 11  3  1  0
 24 12  1  0
 11  6  1  0
 22 17  1  0
  4 25  1  0
  5 26  1  0
  7 27  1  0
  8 28  1  0
  9 29  1  0
 10 30  1  0
 13 31  1  0
 13 32  1  0
 14 33  1  0
 14 34  1  0
 15 35  1  0
 15 36  1  0
 19 37  1  0
 20 38  1  0
 21 39  1  0
 23 40  1  0
 23 41  1  0
 24 42  1  0
 24 43  1  0
M  END
>  <Energy>  (1263) 
1981.3272670084718

>  <compound_id>  (1263) 
75212

>  <target_id>  (1263) 
1

>  <reference_id>  (1263) 
40

>  <inspiration_ids>  (1263) 
[40, 54]

>  <energy_score>  (1263) 
1966.2462565180756

>  <distance_score>  (1263) 
5.843031023198066

>  <path>  (1263) 
/opt/xchem-fragalysis-2/maxwin/BulkDock/SCRATCH/511017/C75212-P40/C75212-P40.minimised.mol

>  <scratch_subdir>  (1263) 
/opt/xchem-fragalysis-2/maxwin/BulkDock/SCRATCH/511017/C75212-P40

>  <fragmenstein_runtime>  (1263) 
16.643558979034424

>  <fragmenstein_outcome>  (1263) 
too moved

>  <fragmenstein_mode>  (1263) 
expansion

>  <fragmenstein_error>  (1263) 


$$$$
C75212-P54
     RDKit          3D

 43 46  0  0  0  0  0  0  0  0999 V2000
  -11.0571   -9.3776   31.7784 O   0  0  0  0  0  0  0  0  0  0  0  0
   -9.9795   -9.7612   31.6760 C   0  0  0  0  0  0  0  0  0  0  0  0
   -8.9717   -8.9572   30.9245 C   0  0  0  0  0  0  0  0  0  0  0  0
   -8.5317   -9.2981   29.6517 C   0  0  0  0  0  0  0  0  0  0  0  0
   -7.6771   -8.3316   29.1887 N   0  0  0  0  0  0  0  0  0  0  0  0
   -7.4802   -7.3677   30.1511 C   0  0  0  0  0  0  0  0  0  0  0  0
   -6.6194   -6.2560   30.1551 C   0  0  0  0  0  0  0  0  0  0  0  0
   -6.5724   -5.4754   31.3092 C   0  0  0  0  0  0  0  0  0  0  0  0
   -7.4016   -5.7581   32.3889 C   0  0  0  0  0  0  0  0  0  0  0  0
   -8.2583   -6.8705   32.3691 C   0  0  0  0  0  0  0  0  0  0  0  0
   -8.2939   -7.7177   31.2418 C   0  0  0  0  0  0  0  0  0  0  0  0
   -9.2459  -11.1596   32.1216 N   0  0  0  0  0  0  0  0  0  0  0  0
   -9.8995  -12.0959   32.8691 C   0  0  0  0  0  0  0  0  0  0  0  0
  -11.6944  -12.2019   32.2132 C   0  0  0  0  0  0  0  0  0  0  0  0
  -12.6402  -13.1728   32.9669 C   0  0  0  0  0  0  0  0  0  0  0  0
  -11.8535  -14.1908   33.6056 N   0  0  0  0  0  0  0  0  0  0  0  0
  -12.3758  -15.4341   33.8909 C   0  0  0  0  0  0  0  0  0  0  0  0
  -13.7091  -15.6231   33.8267 N   0  0  0  0  0  0  0  0  0  0  0  0
  -14.1827  -16.8919   33.9184 C   0  0  0  0  0  0  0  0  0  0  0  0
  -13.3842  -18.0025   33.9976 C   0  0  0  0  0  0  0  0  0  0  0  0
  -12.0447  -17.7212   34.0651 C   0  0  0  0  0  0  0  0  0  0  0  0
  -11.5329  -16.4646   34.0575 N   0  0  0  0  0  0  0  0  0  0  0  0
  -10.6521  -13.6665   34.2171 C   0  0  0  0  0  0  0  0  0  0  0  0
   -9.7758  -12.8624   32.8551 C   0  0  0  0  0  0  0  0  0  0  0  0
   -8.7776  -10.1476   29.0293 H   0  0  0  0  0  0  0  0  0  0  0  0
   -7.2218   -8.3629   28.2870 H   0  0  0  0  0  0  0  0  0  0  0  0
   -5.9830   -6.0300   29.3082 H   0  0  0  0  0  0  0  0  0  0  0  0
   -5.8772   -4.6462   31.3759 H   0  0  0  0  0  0  0  0  0  0  0  0
   -7.3667   -5.1290   33.2754 H   0  0  0  0  0  0  0  0  0  0  0  0
   -8.8726   -7.0973   33.2359 H   0  0  0  0  0  0  0  0  0  0  0  0
   -9.4336  -11.6954   34.0550 H   0  0  0  0  0  0  0  0  0  0  0  0
  -10.5592  -11.2336   33.4293 H   0  0  0  0  0  0  0  0  0  0  0  0
  -11.6006  -12.4923   31.1565 H   0  0  0  0  0  0  0  0  0  0  0  0
  -12.1614  -11.2150   32.2116 H   0  0  0  0  0  0  0  0  0  0  0  0
  -13.3613  -13.5809   32.2485 H   0  0  0  0  0  0  0  0  0  0  0  0
  -13.2042  -12.6138   33.7234 H   0  0  0  0  0  0  0  0  0  0  0  0
  -15.2641  -16.9806   33.8910 H   0  0  0  0  0  0  0  0  0  0  0  0
  -13.7687  -19.0122   34.0279 H   0  0  0  0  0  0  0  0  0  0  0  0
  -11.3195  -18.5240   34.1383 H   0  0  0  0  0  0  0  0  0  0  0  0
   -9.9890  -14.4369   34.5953 H   0  0  0  0  0  0  0  0  0  0  0  0
  -10.8698  -12.9535   35.0236 H   0  0  0  0  0  0  0  0  0  0  0  0
   -8.6547  -13.3556   33.0934 H   0  0  0  0  0  0  0  0  0  0  0  0
   -9.8864  -13.6100   31.9170 H   0  0  0  0  0  0  0  0  0  0  0  0
  1  2  2  0
  2  3  1  0
  3  4  2  0
  4  5  1  0
  5  6  1  0
  6  7  2  0
  7  8  1  0
  8  9  2  0
  9 10  1  0
 10 11  2  0
  2 12  1  0
 12 13  1  0
 13 14  1  0
 14 15  1  0
 15 16  1  0
 16 17  1  0
 17 18  2  0
 18 19  1  0
 19 20  2  0
 20 21  1  0
 21 22  2  0
 16 23  1  0
 23 24  1  0
 11  3  1  0
 24 12  1  0
 11  6  1  0
 22 17  1  0
  4 25  1  0
  5 26  1  0
  7 27  1  0
  8 28  1  0
  9 29  1  0
 10 30  1  0
 13 31  1  0
 13 32  1  0
 14 33  1  0
 14 34  1  0
 15 35  1  0
 15 36  1  0
 19 37  1  0
 20 38  1  0
 21 39  1  0
 23 40  1  0
 23 41  1  0
 24 42  1  0
 24 43  1  0
M  END
>  <Energy>  (1264) 
743.45389483726558

>  <compound_id>  (1264) 
75212

>  <target_id>  (1264) 
1

>  <reference_id>  (1264) 
54

>  <inspiration_ids>  (1264) 
[40, 54]

>  <energy_score>  (1264) 
728.372884346895

>  <distance_score>  (1264) 
9.216006307909248

>  <path>  (1264) 
/opt/xchem-fragalysis-2/maxwin/BulkDock/SCRATCH/511017/C75212-P54/C75212-P54.minimised.mol

>  <scratch_subdir>  (1264) 
/opt/xchem-fragalysis-2/maxwin/BulkDock/SCRATCH/511017/C75212-P54

>  <fragmenstein_runtime>  (1264) 
19.15784454345703

>  <fragmenstein_outcome>  (1264) 
too moved

>  <fragmenstein_mode>  (1264) 
expansion

>  <fragmenstein_error>  (1264) 


$$$$
C75214-P40
     RDKit          3D

 47 50  0  0  0  0  0  0  0  0999 V2000
   -5.2668  -15.1884   31.4154 O   0  0  0  0  0  0  0  0  0  0  0  0
   -6.0923  -14.3259   31.1681 C   0  0  0  0  0  0  0  0  0  0  0  0
   -6.2611  -14.0816   29.8671 O   0  0  0  0  0  0  0  0  0  0  0  0
   -7.1097  -13.4945   32.1884 C   0  0  0  0  0  0  0  0  0  0  0  0
   -6.9920  -11.7419   33.1198 C   0  0  0  0  0  0  0  0  0  0  0  0
   -5.6597  -11.4737   33.3315 C   0  0  0  0  0  0  0  0  0  0  0  0
   -5.3754  -10.9327   35.1163 N   0  0  0  0  0  0  0  0  0  0  0  0
   -6.5592  -10.3905   35.6183 C   0  0  0  0  0  0  0  0  0  0  0  0
   -6.3842   -9.4501   36.6524 C   0  0  0  0  0  0  0  0  0  0  0  0
   -5.1815   -8.7322   36.5838 C   0  0  0  0  0  0  0  0  0  0  0  0
   -4.5133   -8.5877   35.3574 C   0  0  0  0  0  0  0  0  0  0  0  0
   -5.1304   -9.0547   34.1603 C   0  0  0  0  0  0  0  0  0  0  0  0
   -6.0848  -10.4581   34.2417 C   0  0  0  0  0  0  0  0  0  0  0  0
   -8.3144  -15.1096   32.3092 N   0  0  0  0  0  0  0  0  0  0  0  0
   -9.7432  -15.1947   33.2241 C   0  0  0  0  0  0  0  0  0  0  0  0
  -10.1452  -16.4860   34.3577 C   0  0  0  0  0  0  0  0  0  0  0  0
  -10.8408  -18.1453   34.1539 C   0  0  0  0  0  0  0  0  0  0  0  0
  -10.1259  -19.2234   32.8962 N   0  0  0  0  0  0  0  0  0  0  0  0
  -10.8081  -20.2886   31.4720 C   0  0  0  0  0  0  0  0  0  0  0  0
  -12.0948  -20.7188   31.2123 N   0  0  0  0  0  0  0  0  0  0  0  0
  -12.7229  -21.2784   30.0645 C   0  0  0  0  0  0  0  0  0  0  0  0
  -12.1783  -21.5963   28.9091 C   0  0  0  0  0  0  0  0  0  0  0  0
  -10.9486  -21.6643   29.2543 C   0  0  0  0  0  0  0  0  0  0  0  0
  -10.4456  -21.0343   30.4244 N   0  0  0  0  0  0  0  0  0  0  0  0
   -8.5008  -18.6024   33.5234 C   0  0  0  0  0  0  0  0  0  0  0  0
   -7.7619  -17.0336   32.7000 C   0  0  0  0  0  0  0  0  0  0  0  0
   -7.1620  -13.8967   29.5598 H   0  0  0  0  0  0  0  0  0  0  0  0
   -6.9251  -12.8135   31.3763 H   0  0  0  0  0  0  0  0  0  0  0  0
   -5.0244  -12.3140   33.2088 H   0  0  0  0  0  0  0  0  0  0  0  0
   -4.8819  -11.6104   35.6915 H   0  0  0  0  0  0  0  0  0  0  0  0
   -7.0176   -9.4616   37.5314 H   0  0  0  0  0  0  0  0  0  0  0  0
   -4.8032   -8.2273   37.4708 H   0  0  0  0  0  0  0  0  0  0  0  0
   -3.5641   -8.0568   35.3243 H   0  0  0  0  0  0  0  0  0  0  0  0
   -4.7443   -8.8480   33.1767 H   0  0  0  0  0  0  0  0  0  0  0  0
  -10.5854  -15.1551   32.5498 H   0  0  0  0  0  0  0  0  0  0  0  0
   -9.9172  -14.2281   33.6707 H   0  0  0  0  0  0  0  0  0  0  0  0
   -9.3270  -16.5683   35.0806 H   0  0  0  0  0  0  0  0  0  0  0  0
  -10.9440  -16.0137   34.9528 H   0  0  0  0  0  0  0  0  0  0  0  0
  -11.9430  -18.1661   34.1495 H   0  0  0  0  0  0  0  0  0  0  0  0
  -10.5764  -18.6156   35.1184 H   0  0  0  0  0  0  0  0  0  0  0  0
  -13.7575  -21.4781   30.2739 H   0  0  0  0  0  0  0  0  0  0  0  0
  -12.5427  -21.9795   27.9849 H   0  0  0  0  0  0  0  0  0  0  0  0
  -10.2699  -22.1927   28.5973 H   0  0  0  0  0  0  0  0  0  0  0  0
   -7.7097  -19.3674   33.5804 H   0  0  0  0  0  0  0  0  0  0  0  0
   -8.6735  -18.4052   34.5798 H   0  0  0  0  0  0  0  0  0  0  0  0
   -6.6823  -17.0466   32.6730 H   0  0  0  0  0  0  0  0  0  0  0  0
   -7.4852  -17.7388   31.8325 H   0  0  0  0  0  0  0  0  0  0  0  0
  1  2  2  0
  2  3  1  0
  2  4  1  0
  4  5  1  0
  5  6  2  0
  6  7  1  0
  7  8  1  0
  8  9  2  0
  9 10  1  0
 10 11  2  0
 11 12  1  0
 12 13  2  0
  4 14  1  0
 14 15  1  0
 15 16  1  0
 16 17  1  0
 17 18  1  0
 18 19  1  0
 19 20  2  0
 20 21  1  0
 21 22  2  0
 22 23  1  0
 23 24  2  0
 18 25  1  0
 25 26  1  0
 13  5  1  0
 26 14  1  0
 13  8  1  0
 24 19  1  0
  3 27  1  0
  4 28  1  0
  6 29  1  0
  7 30  1  0
  9 31  1  0
 10 32  1  0
 11 33  1  0
 12 34  1  0
 15 35  1  0
 15 36  1  0
 16 37  1  0
 16 38  1  0
 17 39  1  0
 17 40  1  0
 21 41  1  0
 22 42  1  0
 23 43  1  0
 25 44  1  0
 25 45  1  0
 26 46  1  0
 26 47  1  0
M  END
>  <Energy>  (1265) 
1349.7698896398583

>  <compound_id>  (1265) 
75214

>  <target_id>  (1265) 
1

>  <reference_id>  (1265) 
40

>  <inspiration_ids>  (1265) 
[40, 54]

>  <energy_score>  (1265) 
1279.2933896521304

>  <distance_score>  (1265) 
7.185358184422472

>  <path>  (1265) 
/opt/xchem-fragalysis-2/maxwin/BulkDock/SCRATCH/511017/C75214-P40/C75214-P40.minimised.mol

>  <scratch_subdir>  (1265) 
/opt/xchem-fragalysis-2/maxwin/BulkDock/SCRATCH/511017/C75214-P40

>  <fragmenstein_runtime>  (1265) 
22.04007053375244

>  <fragmenstein_outcome>  (1265) 
too moved

>  <fragmenstein_mode>  (1265) 
expansion

>  <fragmenstein_error>  (1265) 


$$$$
C75214-P54
     RDKit          3D

 47 50  0  0  0  0  0  0  0  0999 V2000
   -6.7940  -12.6071   33.1885 O   0  0  0  0  0  0  0  0  0  0  0  0
   -6.8291  -12.8882   31.9937 C   0  0  0  0  0  0  0  0  0  0  0  0
   -5.9280  -13.7888   31.5403 O   0  0  0  0  0  0  0  0  0  0  0  0
   -7.9624  -12.2489   30.7799 C   0  0  0  0  0  0  0  0  0  0  0  0
   -7.2024  -11.0339   29.4502 C   0  0  0  0  0  0  0  0  0  0  0  0
   -6.2272  -11.1376   28.4252 C   0  0  0  0  0  0  0  0  0  0  0  0
   -5.5105   -9.7284   28.2685 N   0  0  0  0  0  0  0  0  0  0  0  0
   -6.2074   -8.5736   28.9652 C   0  0  0  0  0  0  0  0  0  0  0  0
   -5.9414   -7.1420   29.3188 C   0  0  0  0  0  0  0  0  0  0  0  0
   -6.9139   -6.2654   29.7860 C   0  0  0  0  0  0  0  0  0  0  0  0
   -8.1677   -6.7528   30.0349 C   0  0  0  0  0  0  0  0  0  0  0  0
   -8.3829   -8.1313   29.9435 C   0  0  0  0  0  0  0  0  0  0  0  0
   -7.3247   -9.1448   29.5148 C   0  0  0  0  0  0  0  0  0  0  0  0
   -9.4640  -12.9043   31.4420 N   0  0  0  0  0  0  0  0  0  0  0  0
  -10.7348  -12.1330   31.4546 C   0  0  0  0  0  0  0  0  0  0  0  0
  -11.6394  -12.0867   32.7431 C   0  0  0  0  0  0  0  0  0  0  0  0
  -12.4621  -13.3233   33.1546 C   0  0  0  0  0  0  0  0  0  0  0  0
  -11.7328  -14.3269   33.9323 N   0  0  0  0  0  0  0  0  0  0  0  0
  -12.4094  -15.5884   34.0052 C   0  0  0  0  0  0  0  0  0  0  0  0
  -13.7560  -15.6361   33.9268 N   0  0  0  0  0  0  0  0  0  0  0  0
  -14.3582  -16.8547   33.9172 C   0  0  0  0  0  0  0  0  0  0  0  0
  -13.6917  -18.0551   33.9382 C   0  0  0  0  0  0  0  0  0  0  0  0
  -12.3342  -17.9331   34.0363 C   0  0  0  0  0  0  0  0  0  0  0  0
  -11.7038  -16.7395   34.1105 N   0  0  0  0  0  0  0  0  0  0  0  0
  -10.2805  -14.5053   33.7263 C   0  0  0  0  0  0  0  0  0  0  0  0
   -9.3105  -13.5760   32.8736 C   0  0  0  0  0  0  0  0  0  0  0  0
   -5.8109  -13.8057   30.5830 H   0  0  0  0  0  0  0  0  0  0  0  0
   -8.1074  -11.2322   31.0284 H   0  0  0  0  0  0  0  0  0  0  0  0
   -5.8297  -11.9742   27.9427 H   0  0  0  0  0  0  0  0  0  0  0  0
   -4.7069   -9.6429   27.6652 H   0  0  0  0  0  0  0  0  0  0  0  0
   -4.9438   -6.7168   29.1727 H   0  0  0  0  0  0  0  0  0  0  0  0
   -6.6809   -5.2194   29.9474 H   0  0  0  0  0  0  0  0  0  0  0  0
   -8.9629   -6.1001   30.3796 H   0  0  0  0  0  0  0  0  0  0  0  0
   -9.3492   -8.4968   30.2913 H   0  0  0  0  0  0  0  0  0  0  0  0
  -11.3728  -12.5009   30.6430 H   0  0  0  0  0  0  0  0  0  0  0  0
  -10.5307  -11.0891   31.2072 H   0  0  0  0  0  0  0  0  0  0  0  0
  -11.0770  -11.7216   33.6083 H   0  0  0  0  0  0  0  0  0  0  0  0
  -12.3755  -11.2957   32.5376 H   0  0  0  0  0  0  0  0  0  0  0  0
  -13.2646  -12.9517   33.8076 H   0  0  0  0  0  0  0  0  0  0  0  0
  -12.9811  -13.7295   32.2765 H   0  0  0  0  0  0  0  0  0  0  0  0
  -15.4427  -16.8209   33.8767 H   0  0  0  0  0  0  0  0  0  0  0  0
  -14.1888  -19.0139   33.9117 H   0  0  0  0  0  0  0  0  0  0  0  0
  -11.6863  -18.8029   34.0831 H   0  0  0  0  0  0  0  0  0  0  0  0
  -10.0588  -15.5051   33.3421 H   0  0  0  0  0  0  0  0  0  0  0  0
   -9.8904  -14.4290   34.7477 H   0  0  0  0  0  0  0  0  0  0  0  0
   -8.4511  -14.2441   32.7763 H   0  0  0  0  0  0  0  0  0  0  0  0
   -9.0480  -12.8310   33.6249 H   0  0  0  0  0  0  0  0  0  0  0  0
  1  2  2  0
  2  3  1  0
  2  4  1  0
  4  5  1  0
  5  6  2  0
  6  7  1  0
  7  8  1  0
  8  9  2  0
  9 10  1  0
 10 11  2  0
 11 12  1  0
 12 13  2  0
  4 14  1  0
 14 15  1  0
 15 16  1  0
 16 17  1  0
 17 18  1  0
 18 19  1  0
 19 20  2  0
 20 21  1  0
 21 22  2  0
 22 23  1  0
 23 24  2  0
 18 25  1  0
 25 26  1  0
 13  5  1  0
 26 14  1  0
 13  8  1  0
 24 19  1  0
  3 27  1  0
  4 28  1  0
  6 29  1  0
  7 30  1  0
  9 31  1  0
 10 32  1  0
 11 33  1  0
 12 34  1  0
 15 35  1  0
 15 36  1  0
 16 37  1  0
 16 38  1  0
 17 39  1  0
 17 40  1  0
 21 41  1  0
 22 42  1  0
 23 43  1  0
 25 44  1  0
 25 45  1  0
 26 46  1  0
 26 47  1  0
M  END
>  <Energy>  (1266) 
320.91464914035396

>  <compound_id>  (1266) 
75214

>  <target_id>  (1266) 
1

>  <reference_id>  (1266) 
54

>  <inspiration_ids>  (1266) 
[40, 54]

>  <energy_score>  (1266) 
250.43814915264227

>  <distance_score>  (1266) 
8.950808045091993

>  <path>  (1266) 
/opt/xchem-fragalysis-2/maxwin/BulkDock/SCRATCH/511017/C75214-P54/C75214-P54.minimised.mol

>  <scratch_subdir>  (1266) 
/opt/xchem-fragalysis-2/maxwin/BulkDock/SCRATCH/511017/C75214-P54

>  <fragmenstein_runtime>  (1266) 
21.419207096099854

>  <fragmenstein_outcome>  (1266) 
too moved

>  <fragmenstein_mode>  (1266) 
expansion

>  <fragmenstein_error>  (1266) 


$$$$
C75215-P40
     RDKit          3D

 52 55  0  0  0  0  0  0  0  0999 V2000
   -7.2724  -18.1146   31.1240 O   0  0  0  0  0  0  0  0  0  0  0  0
   -6.6839  -17.7282   32.0328 C   0  0  0  0  0  0  0  0  0  0  0  0
   -5.5697  -15.8926   31.4782 C   0  0  0  0  0  0  0  0  0  0  0  0
   -4.8030  -14.1951   30.3846 C   0  0  0  0  0  0  0  0  0  0  0  0
   -3.5588  -12.5151   29.4702 C   0  0  0  0  0  0  0  0  0  0  0  0
   -2.0812  -11.0674   29.8211 C   0  0  0  0  0  0  0  0  0  0  0  0
   -0.9536  -10.3000   29.1289 C   0  0  0  0  0  0  0  0  0  0  0  0
   -0.6128   -8.9481   29.2289 N   0  0  0  0  0  0  0  0  0  0  0  0
   -0.6892   -8.6494   30.5251 C   0  0  0  0  0  0  0  0  0  0  0  0
   -0.1627   -7.4598   31.0860 C   0  0  0  0  0  0  0  0  0  0  0  0
   -0.4754   -7.1311   32.3709 C   0  0  0  0  0  0  0  0  0  0  0  0
   -1.4145   -7.9164   32.9601 C   0  0  0  0  0  0  0  0  0  0  0  0
   -1.9818   -9.0503   32.2883 C   0  0  0  0  0  0  0  0  0  0  0  0
   -1.5348   -9.7086   31.0729 C   0  0  0  0  0  0  0  0  0  0  0  0
   -6.8516  -18.9130   33.4791 N   0  0  0  0  0  0  0  0  0  0  0  0
   -7.5635  -19.9750   33.7123 C   0  0  0  0  0  0  0  0  0  0  0  0
   -9.2294  -19.4079   34.1330 C   0  0  0  0  0  0  0  0  0  0  0  0
  -10.2551  -19.4782   32.7915 C   0  0  0  0  0  0  0  0  0  0  0  0
  -10.3446  -20.8549   31.5643 N   0  0  0  0  0  0  0  0  0  0  0  0
  -11.1431  -21.4112   30.5290 C   0  0  0  0  0  0  0  0  0  0  0  0
  -12.1634  -20.8086   30.1463 N   0  0  0  0  0  0  0  0  0  0  0  0
  -12.4465  -21.0561   28.8796 C   0  0  0  0  0  0  0  0  0  0  0  0
  -11.9967  -21.9174   27.9090 C   0  0  0  0  0  0  0  0  0  0  0  0
  -11.1054  -22.7051   28.4400 C   0  0  0  0  0  0  0  0  0  0  0  0
  -10.7491  -22.4188   29.6906 N   0  0  0  0  0  0  0  0  0  0  0  0
   -9.2675  -21.7393   32.4045 C   0  0  0  0  0  0  0  0  0  0  0  0
   -7.7279  -20.8199   33.5776 C   0  0  0  0  0  0  0  0  0  0  0  0
   -4.5377  -16.0515   31.7822 H   0  0  0  0  0  0  0  0  0  0  0  0
   -6.1938  -15.1448   31.8758 H   0  0  0  0  0  0  0  0  0  0  0  0
   -3.9284  -14.9188   30.3402 H   0  0  0  0  0  0  0  0  0  0  0  0
   -5.7951  -14.0494   29.9143 H   0  0  0  0  0  0  0  0  0  0  0  0
   -2.6764  -13.0033   29.0475 H   0  0  0  0  0  0  0  0  0  0  0  0
   -4.1959  -12.0014   28.7684 H   0  0  0  0  0  0  0  0  0  0  0  0
    0.0080  -10.6128   29.4676 H   0  0  0  0  0  0  0  0  0  0  0  0
   -0.0130   -8.4243   28.6147 H   0  0  0  0  0  0  0  0  0  0  0  0
    0.4612   -6.7929   30.4976 H   0  0  0  0  0  0  0  0  0  0  0  0
   -0.0810   -6.2479   32.8590 H   0  0  0  0  0  0  0  0  0  0  0  0
   -1.7818   -7.6587   33.9524 H   0  0  0  0  0  0  0  0  0  0  0  0
   -2.8151   -9.3444   32.8796 H   0  0  0  0  0  0  0  0  0  0  0  0
   -6.4910  -20.2424   34.5288 H   0  0  0  0  0  0  0  0  0  0  0  0
   -7.6478  -19.6154   34.9271 H   0  0  0  0  0  0  0  0  0  0  0  0
   -9.1334  -18.3549   34.4757 H   0  0  0  0  0  0  0  0  0  0  0  0
   -9.5776  -19.9264   35.0313 H   0  0  0  0  0  0  0  0  0  0  0  0
   -9.9914  -18.4836   32.9365 H   0  0  0  0  0  0  0  0  0  0  0  0
  -11.3171  -19.1795   32.8834 H   0  0  0  0  0  0  0  0  0  0  0  0
  -13.0558  -20.2393   28.7169 H   0  0  0  0  0  0  0  0  0  0  0  0
  -12.3147  -21.9710   26.8883 H   0  0  0  0  0  0  0  0  0  0  0  0
  -10.6206  -23.5312   27.9438 H   0  0  0  0  0  0  0  0  0  0  0  0
   -9.1788  -22.9731   32.5503 H   0  0  0  0  0  0  0  0  0  0  0  0
  -10.2359  -22.3554   32.4957 H   0  0  0  0  0  0  0  0  0  0  0  0
   -6.7257  -21.4666   33.2350 H   0  0  0  0  0  0  0  0  0  0  0  0
   -7.8599  -21.4585   34.6554 H   0  0  0  0  0  0  0  0  0  0  0  0
  1  2  2  0
  2  3  1  0
  3  4  1  0
  4  5  1  0
  5  6  1  0
  6  7  2  0
  7  8  1  0
  8  9  1  0
  9 10  2  0
 10 11  1  0
 11 12  2  0
 12 13  1  0
 13 14  2  0
  2 15  1  0
 15 16  1  0
 16 17  1  0
 17 18  1  0
 18 19  1  0
 19 20  1  0
 20 21  2  0
 21 22  1  0
 22 23  2  0
 23 24  1  0
 24 25  2  0
 19 26  1  0
 26 27  1  0
 14  6  1  0
 27 15  1  0
 14  9  1  0
 25 20  1  0
  3 28  1  0
  3 29  1  0
  4 30  1  0
  4 31  1  0
  5 32  1  0
  5 33  1  0
  7 34  1  0
  8 35  1  0
 10 36  1  0
 11 37  1  0
 12 38  1  0
 13 39  1  0
 16 40  1  0
 16 41  1  0
 17 42  1  0
 17 43  1  0
 18 44  1  0
 18 45  1  0
 22 46  1  0
 23 47  1  0
 24 48  1  0
 26 49  1  0
 26 50  1  0
 27 51  1  0
 27 52  1  0
M  END
>  <Energy>  (1267) 
2168.0875490520348

>  <compound_id>  (1267) 
75215

>  <target_id>  (1267) 
1

>  <reference_id>  (1267) 
40

>  <inspiration_ids>  (1267) 
[40, 54]

>  <energy_score>  (1267) 
2167.334661986259

>  <distance_score>  (1267) 
3.311809683450552

>  <path>  (1267) 
/opt/xchem-fragalysis-2/maxwin/BulkDock/SCRATCH/511017/C75215-P40/C75215-P40.minimised.mol

>  <scratch_subdir>  (1267) 
/opt/xchem-fragalysis-2/maxwin/BulkDock/SCRATCH/511017/C75215-P40

>  <fragmenstein_runtime>  (1267) 
18.001070022583008

>  <fragmenstein_outcome>  (1267) 
too moved

>  <fragmenstein_mode>  (1267) 
expansion

>  <fragmenstein_error>  (1267) 


$$$$
C75215-P54
     RDKit          3D

 52 55  0  0  0  0  0  0  0  0999 V2000
   -4.7427  -16.2327   31.7899 O   0  0  0  0  0  0  0  0  0  0  0  0
   -5.5792  -15.4932   31.8798 C   0  0  0  0  0  0  0  0  0  0  0  0
   -4.9270  -13.6784   31.2856 C   0  0  0  0  0  0  0  0  0  0  0  0
   -3.0439  -12.8688   30.8136 C   0  0  0  0  0  0  0  0  0  0  0  0
   -1.9864  -11.1868   31.3247 C   0  0  0  0  0  0  0  0  0  0  0  0
   -0.7582   -9.6227   30.8798 C   0  0  0  0  0  0  0  0  0  0  0  0
    0.6597   -9.6639   30.5478 C   0  0  0  0  0  0  0  0  0  0  0  0
    1.6348   -8.9881   31.4237 N   0  0  0  0  0  0  0  0  0  0  0  0
    1.3870   -7.5813   31.5006 C   0  0  0  0  0  0  0  0  0  0  0  0
    2.1972   -5.8442   30.6840 C   0  0  0  0  0  0  0  0  0  0  0  0
    0.8826   -4.3275   30.7392 C   0  0  0  0  0  0  0  0  0  0  0  0
   -1.0348   -4.5461   30.9501 C   0  0  0  0  0  0  0  0  0  0  0  0
   -1.7527   -6.3411   31.4551 C   0  0  0  0  0  0  0  0  0  0  0  0
   -0.4803   -7.8093   31.5253 C   0  0  0  0  0  0  0  0  0  0  0  0
   -6.9268  -15.6162   32.4392 N   0  0  0  0  0  0  0  0  0  0  0  0
   -7.6367  -16.5439   33.1232 C   0  0  0  0  0  0  0  0  0  0  0  0
   -9.6001  -16.5676   32.9231 C   0  0  0  0  0  0  0  0  0  0  0  0
  -10.4366  -17.7980   32.3367 C   0  0  0  0  0  0  0  0  0  0  0  0
   -9.9800  -19.1185   32.6528 N   0  0  0  0  0  0  0  0  0  0  0  0
  -10.6004  -20.2316   32.0821 C   0  0  0  0  0  0  0  0  0  0  0  0
  -11.3641  -20.0732   30.9813 N   0  0  0  0  0  0  0  0  0  0  0  0
  -11.6270  -21.1774   30.2510 C   0  0  0  0  0  0  0  0  0  0  0  0
  -11.2105  -22.4398   30.5781 C   0  0  0  0  0  0  0  0  0  0  0  0
  -10.4951  -22.5174   31.7400 C   0  0  0  0  0  0  0  0  0  0  0  0
  -10.1733  -21.4461   32.4889 N   0  0  0  0  0  0  0  0  0  0  0  0
   -8.4734  -19.1117   32.5760 C   0  0  0  0  0  0  0  0  0  0  0  0
   -7.6084  -17.3484   33.0510 C   0  0  0  0  0  0  0  0  0  0  0  0
   -4.1543  -14.3664   31.2827 H   0  0  0  0  0  0  0  0  0  0  0  0
   -5.5515  -13.6260   30.4049 H   0  0  0  0  0  0  0  0  0  0  0  0
   -2.8084  -12.9861   29.7445 H   0  0  0  0  0  0  0  0  0  0  0  0
   -2.4812  -13.7698   30.9877 H   0  0  0  0  0  0  0  0  0  0  0  0
   -2.8559  -10.6558   31.6938 H   0  0  0  0  0  0  0  0  0  0  0  0
   -1.5079  -11.5569   32.2318 H   0  0  0  0  0  0  0  0  0  0  0  0
    1.1661  -10.3727   29.9318 H   0  0  0  0  0  0  0  0  0  0  0  0
    2.5955   -9.2701   31.3616 H   0  0  0  0  0  0  0  0  0  0  0  0
    3.2948   -5.7867   30.6139 H   0  0  0  0  0  0  0  0  0  0  0  0
    1.2669   -3.3112   30.5748 H   0  0  0  0  0  0  0  0  0  0  0  0
   -1.7146   -3.7071   30.8133 H   0  0  0  0  0  0  0  0  0  0  0  0
   -2.8053   -6.5363   31.3171 H   0  0  0  0  0  0  0  0  0  0  0  0
   -7.0604  -16.1939   34.2107 H   0  0  0  0  0  0  0  0  0  0  0  0
   -8.0506  -15.4431   33.3265 H   0  0  0  0  0  0  0  0  0  0  0  0
   -9.7054  -15.6023   32.4979 H   0  0  0  0  0  0  0  0  0  0  0  0
  -10.1943  -16.3583   33.8264 H   0  0  0  0  0  0  0  0  0  0  0  0
  -10.3990  -17.8150   31.2719 H   0  0  0  0  0  0  0  0  0  0  0  0
  -11.4474  -17.7191   32.7304 H   0  0  0  0  0  0  0  0  0  0  0  0
  -12.1777  -21.0066   29.3357 H   0  0  0  0  0  0  0  0  0  0  0  0
  -11.4370  -23.3041   29.9738 H   0  0  0  0  0  0  0  0  0  0  0  0
  -10.1184  -23.4639   32.1112 H   0  0  0  0  0  0  0  0  0  0  0  0
   -8.1165  -20.1319   32.4112 H   0  0  0  0  0  0  0  0  0  0  0  0
   -8.1640  -19.6230   33.5196 H   0  0  0  0  0  0  0  0  0  0  0  0
   -6.5805  -17.7103   32.3019 H   0  0  0  0  0  0  0  0  0  0  0  0
   -6.8606  -18.1033   33.4530 H   0  0  0  0  0  0  0  0  0  0  0  0
  1  2  2  0
  2  3  1  0
  3  4  1  0
  4  5  1  0
  5  6  1  0
  6  7  2  0
  7  8  1  0
  8  9  1  0
  9 10  2  0
 10 11  1  0
 11 12  2  0
 12 13  1  0
 13 14  2  0
  2 15  1  0
 15 16  1  0
 16 17  1  0
 17 18  1  0
 18 19  1  0
 19 20  1  0
 20 21  2  0
 21 22  1  0
 22 23  2  0
 23 24  1  0
 24 25  2  0
 19 26  1  0
 26 27  1  0
 14  6  1  0
 27 15  1  0
 14  9  1  0
 25 20  1  0
  3 28  1  0
  3 29  1  0
  4 30  1  0
  4 31  1  0
  5 32  1  0
  5 33  1  0
  7 34  1  0
  8 35  1  0
 10 36  1  0
 11 37  1  0
 12 38  1  0
 13 39  1  0
 16 40  1  0
 16 41  1  0
 17 42  1  0
 17 43  1  0
 18 44  1  0
 18 45  1  0
 22 46  1  0
 23 47  1  0
 24 48  1  0
 26 49  1  0
 26 50  1  0
 27 51  1  0
 27 52  1  0
M  END
>  <Energy>  (1268) 
1991.4512999961962

>  <compound_id>  (1268) 
75215

>  <target_id>  (1268) 
1

>  <reference_id>  (1268) 
54

>  <inspiration_ids>  (1268) 
[40, 54]

>  <energy_score>  (1268) 
1990.698412930455

>  <distance_score>  (1268) 
4.103651144412285

>  <path>  (1268) 
/opt/xchem-fragalysis-2/maxwin/BulkDock/SCRATCH/511017/C75215-P54/C75215-P54.minimised.mol

>  <scratch_subdir>  (1268) 
/opt/xchem-fragalysis-2/maxwin/BulkDock/SCRATCH/511017/C75215-P54

>  <fragmenstein_runtime>  (1268) 
19.460734844207764

>  <fragmenstein_outcome>  (1268) 
too moved

>  <fragmenstein_mode>  (1268) 
expansion

>  <fragmenstein_error>  (1268) 


$$$$
C75216-P40
     RDKit          3D

 46 49  0  0  0  0  0  0  0  0999 V2000
   -3.1735  -16.0351   31.9377 O   0  0  0  0  0  0  0  0  0  0  0  0
   -4.0414  -15.7022   31.2716 C   0  0  0  0  0  0  0  0  0  0  0  0
   -3.3087  -14.4373   29.8633 C   0  0  0  0  0  0  0  0  0  0  0  0
   -2.7489  -12.4098   29.4708 C   0  0  0  0  0  0  0  0  0  0  0  0
   -2.7609  -11.8725   28.2284 C   0  0  0  0  0  0  0  0  0  0  0  0
   -1.6913  -10.9766   28.0129 N   0  0  0  0  0  0  0  0  0  0  0  0
   -1.0088  -10.1915   29.0591 C   0  0  0  0  0  0  0  0  0  0  0  0
   -0.3131   -8.8576   29.1392 C   0  0  0  0  0  0  0  0  0  0  0  0
   -0.2199   -8.0755   30.2790 C   0  0  0  0  0  0  0  0  0  0  0  0
   -0.8125   -8.5688   31.3827 C   0  0  0  0  0  0  0  0  0  0  0  0
   -1.4175   -9.8522   31.2776 C   0  0  0  0  0  0  0  0  0  0  0  0
   -1.5654  -10.9624   30.0693 C   0  0  0  0  0  0  0  0  0  0  0  0
   -5.8640  -16.2737   31.2406 N   0  0  0  0  0  0  0  0  0  0  0  0
   -6.6046  -17.5185   32.5758 C   0  0  0  0  0  0  0  0  0  0  0  0
   -8.3100  -17.7295   33.8154 C   0  0  0  0  0  0  0  0  0  0  0  0
   -9.2808  -19.0418   34.0731 C   0  0  0  0  0  0  0  0  0  0  0  0
   -8.7635  -20.4444   33.7991 N   0  0  0  0  0  0  0  0  0  0  0  0
   -9.7993  -21.3430   32.3966 C   0  0  0  0  0  0  0  0  0  0  0  0
  -10.6253  -20.6261   31.2400 N   0  0  0  0  0  0  0  0  0  0  0  0
  -11.3325  -21.1290   30.2364 C   0  0  0  0  0  0  0  0  0  0  0  0
  -11.7423  -22.3035   30.4510 C   0  0  0  0  0  0  0  0  0  0  0  0
  -11.1874  -22.9831   31.5638 C   0  0  0  0  0  0  0  0  0  0  0  0
  -10.2341  -22.6621   32.4332 N   0  0  0  0  0  0  0  0  0  0  0  0
   -7.1526  -19.5909   33.1395 C   0  0  0  0  0  0  0  0  0  0  0  0
   -6.9818  -17.7308   32.1698 C   0  0  0  0  0  0  0  0  0  0  0  0
   -2.7726  -14.9630   29.0662 H   0  0  0  0  0  0  0  0  0  0  0  0
   -4.4754  -14.1917   30.1982 H   0  0  0  0  0  0  0  0  0  0  0  0
   -3.2020  -12.1302   27.2664 H   0  0  0  0  0  0  0  0  0  0  0  0
   -1.7079  -10.7048   27.0589 H   0  0  0  0  0  0  0  0  0  0  0  0
   -0.0460   -8.2626   28.2775 H   0  0  0  0  0  0  0  0  0  0  0  0
    0.2193   -7.0845   30.2661 H   0  0  0  0  0  0  0  0  0  0  0  0
   -0.8854   -7.9985   32.3046 H   0  0  0  0  0  0  0  0  0  0  0  0
   -2.0741   -9.8614   32.1429 H   0  0  0  0  0  0  0  0  0  0  0  0
   -5.7439  -18.5040   32.9688 H   0  0  0  0  0  0  0  0  0  0  0  0
   -5.4600  -17.2900   32.8424 H   0  0  0  0  0  0  0  0  0  0  0  0
   -8.3586  -17.2158   34.8163 H   0  0  0  0  0  0  0  0  0  0  0  0
   -9.1482  -17.0192   33.5487 H   0  0  0  0  0  0  0  0  0  0  0  0
   -9.5644  -19.0155   35.1326 H   0  0  0  0  0  0  0  0  0  0  0  0
  -10.1397  -18.7965   33.4841 H   0  0  0  0  0  0  0  0  0  0  0  0
  -11.6894  -20.6197   29.3668 H   0  0  0  0  0  0  0  0  0  0  0  0
  -12.4560  -22.6357   29.7326 H   0  0  0  0  0  0  0  0  0  0  0  0
  -11.1964  -24.0122   31.8028 H   0  0  0  0  0  0  0  0  0  0  0  0
   -6.5991  -20.3689   32.6012 H   0  0  0  0  0  0  0  0  0  0  0  0
   -6.6828  -19.6103   34.1224 H   0  0  0  0  0  0  0  0  0  0  0  0
   -8.0562  -16.8197   32.3807 H   0  0  0  0  0  0  0  0  0  0  0  0
   -7.3315  -18.2923   31.1486 H   0  0  0  0  0  0  0  0  0  0  0  0
  1  2  2  0
  2  3  1  0
  3  4  1  0
  4  5  2  0
  5  6  1  0
  6  7  1  0
  7  8  2  0
  8  9  1  0
  9 10  2  0
 10 11  1  0
 11 12  2  0
  2 13  1  0
 13 14  1  0
 14 15  1  0
 15 16  1  0
 16 17  1  0
 17 18  1  0
 18 19  2  0
 19 20  1  0
 20 21  2  0
 21 22  1  0
 22 23  2  0
 17 24  1  0
 24 25  1  0
 12  4  1  0
 25 13  1  0
 12  7  1  0
 23 18  1  0
  3 26  1  0
  3 27  1  0
  5 28  1  0
  6 29  1  0
  8 30  1  0
  9 31  1  0
 10 32  1  0
 11 33  1  0
 14 34  1  0
 14 35  1  0
 15 36  1  0
 15 37  1  0
 16 38  1  0
 16 39  1  0
 20 40  1  0
 21 41  1  0
 22 42  1  0
 24 43  1  0
 24 44  1  0
 25 45  1  0
 25 46  1  0
M  END
>  <Energy>  (1269) 
1880.6211234836012

>  <compound_id>  (1269) 
75216

>  <target_id>  (1269) 
1

>  <reference_id>  (1269) 
40

>  <inspiration_ids>  (1269) 
[40, 54]

>  <energy_score>  (1269) 
1856.9811464408876

>  <distance_score>  (1269) 
4.657224564304019

>  <path>  (1269) 
/opt/xchem-fragalysis-2/maxwin/BulkDock/SCRATCH/511017/C75216-P40/C75216-P40.minimised.mol

>  <scratch_subdir>  (1269) 
/opt/xchem-fragalysis-2/maxwin/BulkDock/SCRATCH/511017/C75216-P40

>  <fragmenstein_runtime>  (1269) 
18.663870811462402

>  <fragmenstein_outcome>  (1269) 
too moved

>  <fragmenstein_mode>  (1269) 
expansion

>  <fragmenstein_error>  (1269) 


$$$$
C75216-P54
     RDKit          3D

 46 49  0  0  0  0  0  0  0  0999 V2000
  -10.7559  -11.6531   30.4232 O   0  0  0  0  0  0  0  0  0  0  0  0
  -11.2243  -10.9148   31.1687 C   0  0  0  0  0  0  0  0  0  0  0  0
  -11.2947   -9.3662   30.8822 C   0  0  0  0  0  0  0  0  0  0  0  0
  -10.0399   -8.7447   30.1661 C   0  0  0  0  0  0  0  0  0  0  0  0
   -9.4698   -9.1702   28.9730 C   0  0  0  0  0  0  0  0  0  0  0  0
   -8.4147   -8.3571   28.6338 N   0  0  0  0  0  0  0  0  0  0  0  0
   -8.2593   -7.3636   29.5722 C   0  0  0  0  0  0  0  0  0  0  0  0
   -7.3047   -6.3317   29.6490 C   0  0  0  0  0  0  0  0  0  0  0  0
   -7.3050   -5.5190   30.7828 C   0  0  0  0  0  0  0  0  0  0  0  0
   -8.2552   -5.7059   31.7800 C   0  0  0  0  0  0  0  0  0  0  0  0
   -9.2301   -6.7137   31.6681 C   0  0  0  0  0  0  0  0  0  0  0  0
   -9.2398   -7.5844   30.5537 C   0  0  0  0  0  0  0  0  0  0  0  0
  -11.8436  -11.1038   32.7304 N   0  0  0  0  0  0  0  0  0  0  0  0
  -11.9783  -12.3269   33.2896 C   0  0  0  0  0  0  0  0  0  0  0  0
  -13.7088  -12.9001   32.8977 C   0  0  0  0  0  0  0  0  0  0  0  0
  -14.0854  -14.2367   33.5734 C   0  0  0  0  0  0  0  0  0  0  0  0
  -12.9194  -15.0233   33.8885 N   0  0  0  0  0  0  0  0  0  0  0  0
  -12.9993  -16.3998   34.0027 C   0  0  0  0  0  0  0  0  0  0  0  0
  -14.2089  -16.9950   33.8861 N   0  0  0  0  0  0  0  0  0  0  0  0
  -14.2499  -18.3428   33.7604 C   0  0  0  0  0  0  0  0  0  0  0  0
  -13.1372  -19.1337   33.7117 C   0  0  0  0  0  0  0  0  0  0  0  0
  -11.9585  -18.4623   33.8566 C   0  0  0  0  0  0  0  0  0  0  0  0
  -11.8672  -17.1243   34.0372 N   0  0  0  0  0  0  0  0  0  0  0  0
  -11.6944  -14.3254   34.2398 C   0  0  0  0  0  0  0  0  0  0  0  0
  -11.9254  -12.5299   34.0538 C   0  0  0  0  0  0  0  0  0  0  0  0
  -11.4558   -8.8272   31.8213 H   0  0  0  0  0  0  0  0  0  0  0  0
  -12.1677   -9.1955   30.2416 H   0  0  0  0  0  0  0  0  0  0  0  0
   -9.7254  -10.0104   28.3402 H   0  0  0  0  0  0  0  0  0  0  0  0
   -7.8218   -8.4895   27.8238 H   0  0  0  0  0  0  0  0  0  0  0  0
   -6.5682   -6.1872   28.8696 H   0  0  0  0  0  0  0  0  0  0  0  0
   -6.5529   -4.7458   30.8932 H   0  0  0  0  0  0  0  0  0  0  0  0
   -8.2497   -5.0654   32.6583 H   0  0  0  0  0  0  0  0  0  0  0  0
   -9.9637   -6.8424   32.4578 H   0  0  0  0  0  0  0  0  0  0  0  0
  -10.7973  -12.7801   32.8227 H   0  0  0  0  0  0  0  0  0  0  0  0
  -12.0128  -12.8188   32.1925 H   0  0  0  0  0  0  0  0  0  0  0  0
  -13.8321  -12.9537   31.8040 H   0  0  0  0  0  0  0  0  0  0  0  0
  -14.3842  -12.0979   33.2303 H   0  0  0  0  0  0  0  0  0  0  0  0
  -14.7810  -14.7615   32.9074 H   0  0  0  0  0  0  0  0  0  0  0  0
  -14.6306  -14.0228   34.5009 H   0  0  0  0  0  0  0  0  0  0  0  0
  -15.2429  -18.7751   33.6943 H   0  0  0  0  0  0  0  0  0  0  0  0
  -13.1714  -20.2054   33.6170 H   0  0  0  0  0  0  0  0  0  0  0  0
  -11.0241  -19.0069   33.8518 H   0  0  0  0  0  0  0  0  0  0  0  0
  -11.5233  -14.4432   35.3194 H   0  0  0  0  0  0  0  0  0  0  0  0
  -10.7813  -14.6599   33.7414 H   0  0  0  0  0  0  0  0  0  0  0  0
  -10.9898  -12.1931   34.7876 H   0  0  0  0  0  0  0  0  0  0  0  0
  -12.7331  -12.2069   34.9223 H   0  0  0  0  0  0  0  0  0  0  0  0
  1  2  2  0
  2  3  1  0
  3  4  1  0
  4  5  2  0
  5  6  1  0
  6  7  1  0
  7  8  2  0
  8  9  1  0
  9 10  2  0
 10 11  1  0
 11 12  2  0
  2 13  1  0
 13 14  1  0
 14 15  1  0
 15 16  1  0
 16 17  1  0
 17 18  1  0
 18 19  2  0
 19 20  1  0
 20 21  2  0
 21 22  1  0
 22 23  2  0
 17 24  1  0
 24 25  1  0
 12  4  1  0
 25 13  1  0
 12  7  1  0
 23 18  1  0
  3 26  1  0
  3 27  1  0
  5 28  1  0
  6 29  1  0
  8 30  1  0
  9 31  1  0
 10 32  1  0
 11 33  1  0
 14 34  1  0
 14 35  1  0
 15 36  1  0
 15 37  1  0
 16 38  1  0
 16 39  1  0
 20 40  1  0
 21 41  1  0
 22 42  1  0
 24 43  1  0
 24 44  1  0
 25 45  1  0
 25 46  1  0
M  END
>  <Energy>  (1270) 
755.34363472189648

>  <compound_id>  (1270) 
75216

>  <target_id>  (1270) 
1

>  <reference_id>  (1270) 
54

>  <inspiration_ids>  (1270) 
[40, 54]

>  <energy_score>  (1270) 
731.7036576792059

>  <distance_score>  (1270) 
9.270384816004796

>  <path>  (1270) 
/opt/xchem-fragalysis-2/maxwin/BulkDock/SCRATCH/511017/C75216-P54/C75216-P54.minimised.mol

>  <scratch_subdir>  (1270) 
/opt/xchem-fragalysis-2/maxwin/BulkDock/SCRATCH/511017/C75216-P54

>  <fragmenstein_runtime>  (1270) 
29.415478944778442

>  <fragmenstein_outcome>  (1270) 
too moved

>  <fragmenstein_mode>  (1270) 
expansion

>  <fragmenstein_error>  (1270) 


$$$$
C75218-P40
     RDKit          3D

 44 47  0  0  0  0  0  0  0  0999 V2000
  -12.1869  -21.6465   28.8345 C   0  0  0  0  0  0  0  0  0  0  0  0
  -12.7402  -21.3322   29.9979 C   0  0  0  0  0  0  0  0  0  0  0  0
  -12.1350  -20.8073   31.1385 N   0  0  0  0  0  0  0  0  0  0  0  0
  -10.8650  -20.4468   31.3464 C   0  0  0  0  0  0  0  0  0  0  0  0
  -10.2203  -19.4095   32.7936 N   0  0  0  0  0  0  0  0  0  0  0  0
  -11.0058  -18.3914   34.1024 C   0  0  0  0  0  0  0  0  0  0  0  0
  -10.1556  -17.2636   34.4942 C   0  0  0  0  0  0  0  0  0  0  0  0
   -8.9742  -16.9566   33.5604 C   0  0  0  0  0  0  0  0  0  0  0  0
   -7.3282  -17.2483   32.6641 N   0  0  0  0  0  0  0  0  0  0  0  0
   -5.8719  -16.0871   31.8783 C   0  0  0  0  0  0  0  0  0  0  0  0
   -4.9620  -14.9588   30.6747 C   0  0  0  0  0  0  0  0  0  0  0  0
   -5.6979  -13.7920   30.0767 C   0  0  0  0  0  0  0  0  0  0  0  0
   -4.9301  -12.3767   29.2161 C   0  0  0  0  0  0  0  0  0  0  0  0
   -3.4179  -12.1364   29.2470 C   0  0  0  0  0  0  0  0  0  0  0  0
   -2.3185  -11.3911   29.5235 C   0  0  0  0  0  0  0  0  0  0  0  0
   -2.0514  -11.2790   28.2367 C   0  0  0  0  0  0  0  0  0  0  0  0
   -2.7955  -12.2364   27.7950 N   0  0  0  0  0  0  0  0  0  0  0  0
   -2.5584  -13.3719   29.2139 C   0  0  0  0  0  0  0  0  0  0  0  0
   -3.3116  -14.8020   30.1113 C   0  0  0  0  0  0  0  0  0  0  0  0
   -7.2826  -18.7153   32.9254 C   0  0  0  0  0  0  0  0  0  0  0  0
   -8.6593  -19.4721   33.8053 C   0  0  0  0  0  0  0  0  0  0  0  0
  -10.4481  -21.0910   30.2767 N   0  0  0  0  0  0  0  0  0  0  0  0
  -10.9432  -21.7093   29.1317 C   0  0  0  0  0  0  0  0  0  0  0  0
  -12.5641  -22.0172   27.9081 H   0  0  0  0  0  0  0  0  0  0  0  0
  -13.7710  -21.5338   30.2190 H   0  0  0  0  0  0  0  0  0  0  0  0
  -12.0890  -18.2698   33.9874 H   0  0  0  0  0  0  0  0  0  0  0  0
  -10.9658  -18.9166   35.0964 H   0  0  0  0  0  0  0  0  0  0  0  0
  -10.8191  -16.3909   34.5406 H   0  0  0  0  0  0  0  0  0  0  0  0
   -9.8717  -17.3540   35.5617 H   0  0  0  0  0  0  0  0  0  0  0  0
   -8.4630  -16.9829   34.5370 H   0  0  0  0  0  0  0  0  0  0  0  0
   -9.3359  -16.0217   33.0813 H   0  0  0  0  0  0  0  0  0  0  0  0
   -6.4811  -15.1885   31.8493 H   0  0  0  0  0  0  0  0  0  0  0  0
   -5.9452  -16.4933   30.8318 H   0  0  0  0  0  0  0  0  0  0  0  0
   -6.7596  -13.8364   30.1876 H   0  0  0  0  0  0  0  0  0  0  0  0
   -5.6054  -11.6392   28.9329 H   0  0  0  0  0  0  0  0  0  0  0  0
   -1.7770  -10.6263   30.0831 H   0  0  0  0  0  0  0  0  0  0  0  0
   -1.3191  -10.6793   27.7909 H   0  0  0  0  0  0  0  0  0  0  0  0
   -2.8198  -12.6356   26.8506 H   0  0  0  0  0  0  0  0  0  0  0  0
   -2.5950  -15.1933   30.8429 H   0  0  0  0  0  0  0  0  0  0  0  0
   -7.3047  -18.9598   31.8955 H   0  0  0  0  0  0  0  0  0  0  0  0
   -6.3966  -19.2155   33.3108 H   0  0  0  0  0  0  0  0  0  0  0  0
   -8.8013  -19.0489   34.7974 H   0  0  0  0  0  0  0  0  0  0  0  0
   -8.4193  -20.5203   34.0552 H   0  0  0  0  0  0  0  0  0  0  0  0
  -10.2595  -22.1973   28.4533 H   0  0  0  0  0  0  0  0  0  0  0  0
  1  2  2  0
  2  3  1  0
  3  4  2  0
  4  5  1  0
  5  6  1  0
  6  7  1  0
  7  8  1  0
  8  9  1  0
  9 10  1  0
 10 11  1  0
 11 12  2  0
 12 13  1  0
 13 14  2  0
 14 15  1  0
 15 16  2  0
 16 17  1  0
 17 18  1  0
 18 19  2  0
  9 20  1  0
 20 21  1  0
  4 22  1  0
 22 23  2  0
 23  1  1  0
 21  5  1  0
 19 11  1  0
 18 14  1  0
  1 24  1  0
  2 25  1  0
  6 26  1  0
  6 27  1  0
  7 28  1  0
  7 29  1  0
  8 30  1  0
  8 31  1  0
 10 32  1  0
 10 33  1  0
 12 34  1  0
 13 35  1  0
 15 36  1  0
 16 37  1  0
 17 38  1  0
 19 39  1  0
 20 40  1  0
 20 41  1  0
 21 42  1  0
 21 43  1  0
 23 44  1  0
M  END
>  <Energy>  (1271) 
1038.6858081244845

>  <compound_id>  (1271) 
75218

>  <target_id>  (1271) 
1

>  <reference_id>  (1271) 
40

>  <inspiration_ids>  (1271) 
[40, 54]

>  <energy_score>  (1271) 
1016.3960280964617

>  <distance_score>  (1271) 
6.606129336424836

>  <path>  (1271) 
/opt/xchem-fragalysis-2/maxwin/BulkDock/SCRATCH/511017/C75218-P40/C75218-P40.minimised.mol

>  <scratch_subdir>  (1271) 
/opt/xchem-fragalysis-2/maxwin/BulkDock/SCRATCH/511017/C75218-P40

>  <fragmenstein_runtime>  (1271) 
14.828778982162476

>  <fragmenstein_outcome>  (1271) 
too moved

>  <fragmenstein_mode>  (1271) 
expansion

>  <fragmenstein_error>  (1271) 


$$$$
C75218-P54
     RDKit          3D

 44 47  0  0  0  0  0  0  0  0999 V2000
  -12.3729  -26.1489   27.9997 C   0  0  0  0  0  0  0  0  0  0  0  0
  -13.1968  -25.2701   28.6526 C   0  0  0  0  0  0  0  0  0  0  0  0
  -12.9169  -23.9646   28.8225 N   0  0  0  0  0  0  0  0  0  0  0  0
  -11.7826  -23.5001   28.2716 C   0  0  0  0  0  0  0  0  0  0  0  0
  -11.5573  -22.1317   28.3099 N   0  0  0  0  0  0  0  0  0  0  0  0
  -11.7661  -21.5028   29.5869 C   0  0  0  0  0  0  0  0  0  0  0  0
  -10.6288  -20.5638   29.9288 C   0  0  0  0  0  0  0  0  0  0  0  0
  -10.1864  -19.1879   29.0907 C   0  0  0  0  0  0  0  0  0  0  0  0
   -9.2157  -18.8844   27.4653 N   0  0  0  0  0  0  0  0  0  0  0  0
   -8.4991  -16.8742   27.2343 C   0  0  0  0  0  0  0  0  0  0  0  0
   -7.1031  -15.2899   27.0006 C   0  0  0  0  0  0  0  0  0  0  0  0
   -6.0115  -15.4443   27.6911 C   0  0  0  0  0  0  0  0  0  0  0  0
   -5.2085  -16.0931   26.6559 C   0  0  0  0  0  0  0  0  0  0  0  0
   -3.8273  -15.0321   26.0827 C   0  0  0  0  0  0  0  0  0  0  0  0
   -2.5907  -13.6799   25.8678 C   0  0  0  0  0  0  0  0  0  0  0  0
   -1.7001  -14.3787   25.2481 C   0  0  0  0  0  0  0  0  0  0  0  0
   -2.6570  -15.0681   26.0041 N   0  0  0  0  0  0  0  0  0  0  0  0
   -3.9238  -14.1434   27.0489 C   0  0  0  0  0  0  0  0  0  0  0  0
   -5.7317  -14.1986   27.6667 C   0  0  0  0  0  0  0  0  0  0  0  0
  -10.6363  -20.0652   27.1712 C   0  0  0  0  0  0  0  0  0  0  0  0
  -10.4603  -21.6438   27.4897 C   0  0  0  0  0  0  0  0  0  0  0  0
  -10.9114  -24.2997   27.6296 N   0  0  0  0  0  0  0  0  0  0  0  0
  -11.2194  -25.6020   27.5086 C   0  0  0  0  0  0  0  0  0  0  0  0
  -12.6185  -27.1935   27.8756 H   0  0  0  0  0  0  0  0  0  0  0  0
  -14.1458  -25.5976   29.0673 H   0  0  0  0  0  0  0  0  0  0  0  0
  -11.8151  -22.2465   30.3959 H   0  0  0  0  0  0  0  0  0  0  0  0
  -12.7140  -20.9897   29.6269 H   0  0  0  0  0  0  0  0  0  0  0  0
  -10.8820  -20.1860   30.9327 H   0  0  0  0  0  0  0  0  0  0  0  0
   -9.8246  -21.2748   30.0792 H   0  0  0  0  0  0  0  0  0  0  0  0
  -11.1997  -18.7677   28.9982 H   0  0  0  0  0  0  0  0  0  0  0  0
   -9.8989  -18.5467   29.8821 H   0  0  0  0  0  0  0  0  0  0  0  0
   -9.0501  -16.5421   26.3656 H   0  0  0  0  0  0  0  0  0  0  0  0
   -7.8058  -17.5783   27.4469 H   0  0  0  0  0  0  0  0  0  0  0  0
   -6.3735  -15.8353   28.7090 H   0  0  0  0  0  0  0  0  0  0  0  0
   -5.4799  -17.1252   26.1728 H   0  0  0  0  0  0  0  0  0  0  0  0
   -2.3013  -12.7709   26.4148 H   0  0  0  0  0  0  0  0  0  0  0  0
   -0.7286  -14.6174   24.8500 H   0  0  0  0  0  0  0  0  0  0  0  0
   -2.5729  -16.0981   25.7304 H   0  0  0  0  0  0  0  0  0  0  0  0
   -5.9334  -13.2122   28.1402 H   0  0  0  0  0  0  0  0  0  0  0  0
  -11.0981  -19.9313   26.1961 H   0  0  0  0  0  0  0  0  0  0  0  0
  -11.5517  -19.8153   27.7062 H   0  0  0  0  0  0  0  0  0  0  0  0
  -10.4905  -22.1917   26.5416 H   0  0  0  0  0  0  0  0  0  0  0  0
   -9.4950  -21.8577   27.9632 H   0  0  0  0  0  0  0  0  0  0  0  0
  -10.4900  -26.2037   26.9752 H   0  0  0  0  0  0  0  0  0  0  0  0
  1  2  2  0
  2  3  1  0
  3  4  2  0
  4  5  1  0
  5  6  1  0
  6  7  1  0
  7  8  1  0
  8  9  1  0
  9 10  1  0
 10 11  1  0
 11 12  2  0
 12 13  1  0
 13 14  2  0
 14 15  1  0
 15 16  2  0
 16 17  1  0
 17 18  1  0
 18 19  2  0
  9 20  1  0
 20 21  1  0
  4 22  1  0
 22 23  2  0
 23  1  1  0
 21  5  1  0
 19 11  1  0
 18 14  1  0
  1 24  1  0
  2 25  1  0
  6 26  1  0
  6 27  1  0
  7 28  1  0
  7 29  1  0
  8 30  1  0
  8 31  1  0
 10 32  1  0
 10 33  1  0
 12 34  1  0
 13 35  1  0
 15 36  1  0
 16 37  1  0
 17 38  1  0
 19 39  1  0
 20 40  1  0
 20 41  1  0
 21 42  1  0
 21 43  1  0
 23 44  1  0
M  END
>  <Energy>  (1272) 
1498.366767770593

>  <compound_id>  (1272) 
75218

>  <target_id>  (1272) 
1

>  <reference_id>  (1272) 
54

>  <inspiration_ids>  (1272) 
[40, 54]

>  <energy_score>  (1272) 
1476.0769877426058

>  <distance_score>  (1272) 
7.891765040795027

>  <path>  (1272) 
/opt/xchem-fragalysis-2/maxwin/BulkDock/SCRATCH/511017/C75218-P54/C75218-P54.minimised.mol

>  <scratch_subdir>  (1272) 
/opt/xchem-fragalysis-2/maxwin/BulkDock/SCRATCH/511017/C75218-P54

>  <fragmenstein_runtime>  (1272) 
26.298532009124756

>  <fragmenstein_outcome>  (1272) 
too moved

>  <fragmenstein_mode>  (1272) 
expansion

>  <fragmenstein_error>  (1272) 


$$$$
C75222-P40
     RDKit          3D

 49 52  0  0  0  0  0  0  0  0999 V2000
   -6.0752  -17.6138   32.4730 O   0  0  0  0  0  0  0  0  0  0  0  0
   -6.8900  -16.7806   32.5593 C   0  0  0  0  0  0  0  0  0  0  0  0
   -6.7281  -15.0172   31.6637 N   0  0  0  0  0  0  0  0  0  0  0  0
   -5.3952  -14.2947   30.4093 C   0  0  0  0  0  0  0  0  0  0  0  0
   -4.5002  -12.6155   29.3537 C   0  0  0  0  0  0  0  0  0  0  0  0
   -2.8131  -11.7949   29.5053 N   0  0  0  0  0  0  0  0  0  0  0  0
   -2.4842  -11.6998   28.2444 C   0  0  0  0  0  0  0  0  0  0  0  0
   -1.4683  -10.7823   28.1290 C   0  0  0  0  0  0  0  0  0  0  0  0
   -0.8453  -10.0237   29.1593 C   0  0  0  0  0  0  0  0  0  0  0  0
   -0.1408   -8.7493   29.2785 C   0  0  0  0  0  0  0  0  0  0  0  0
   -0.1703   -7.9434   30.4139 C   0  0  0  0  0  0  0  0  0  0  0  0
   -0.8755   -8.3823   31.4900 C   0  0  0  0  0  0  0  0  0  0  0  0
   -1.5617   -9.6085   31.3909 C   0  0  0  0  0  0  0  0  0  0  0  0
   -1.6243  -10.5947   30.1608 C   0  0  0  0  0  0  0  0  0  0  0  0
   -8.4018  -17.4609   33.6609 C   0  0  0  0  0  0  0  0  0  0  0  0
   -8.8903  -17.2854   35.1930 C   0  0  0  0  0  0  0  0  0  0  0  0
   -9.0888  -18.5548   36.0132 C   0  0  0  0  0  0  0  0  0  0  0  0
   -9.9981  -19.4367   35.2022 C   0  0  0  0  0  0  0  0  0  0  0  0
   -9.2830  -20.1942   33.8664 N   0  0  0  0  0  0  0  0  0  0  0  0
   -9.9015  -21.2281   32.3775 C   0  0  0  0  0  0  0  0  0  0  0  0
  -10.6996  -20.5619   31.1995 N   0  0  0  0  0  0  0  0  0  0  0  0
  -11.3665  -21.0905   30.1682 C   0  0  0  0  0  0  0  0  0  0  0  0
  -11.7280  -22.2889   30.3072 C   0  0  0  0  0  0  0  0  0  0  0  0
  -11.2338  -22.9017   31.4682 C   0  0  0  0  0  0  0  0  0  0  0  0
  -10.3463  -22.5256   32.3951 N   0  0  0  0  0  0  0  0  0  0  0  0
   -8.0523  -19.1497   33.6869 C   0  0  0  0  0  0  0  0  0  0  0  0
   -7.5788  -14.4828   31.7990 H   0  0  0  0  0  0  0  0  0  0  0  0
   -6.0399  -13.4982   30.7705 H   0  0  0  0  0  0  0  0  0  0  0  0
   -4.5726  -14.8462   30.8831 H   0  0  0  0  0  0  0  0  0  0  0  0
   -4.5835  -12.1714   28.3280 H   0  0  0  0  0  0  0  0  0  0  0  0
   -5.2333  -11.7772   29.3892 H   0  0  0  0  0  0  0  0  0  0  0  0
   -2.9746  -12.1130   27.3608 H   0  0  0  0  0  0  0  0  0  0  0  0
   -1.6625  -10.6945   27.1006 H   0  0  0  0  0  0  0  0  0  0  0  0
    0.3423   -8.2621   28.4403 H   0  0  0  0  0  0  0  0  0  0  0  0
    0.3226   -6.9766   30.4304 H   0  0  0  0  0  0  0  0  0  0  0  0
   -0.9736   -7.7766   32.3878 H   0  0  0  0  0  0  0  0  0  0  0  0
   -2.2802   -9.6516   32.1987 H   0  0  0  0  0  0  0  0  0  0  0  0
   -9.3065  -16.9660   33.2920 H   0  0  0  0  0  0  0  0  0  0  0  0
   -9.8895  -16.8457   35.1394 H   0  0  0  0  0  0  0  0  0  0  0  0
   -8.2923  -16.6434   35.8127 H   0  0  0  0  0  0  0  0  0  0  0  0
   -9.6107  -18.2644   36.9336 H   0  0  0  0  0  0  0  0  0  0  0  0
   -8.1671  -19.0391   36.3458 H   0  0  0  0  0  0  0  0  0  0  0  0
  -10.7630  -18.7050   34.8756 H   0  0  0  0  0  0  0  0  0  0  0  0
  -10.4637  -20.1181   35.9163 H   0  0  0  0  0  0  0  0  0  0  0  0
  -11.7350  -20.5715   29.3097 H   0  0  0  0  0  0  0  0  0  0  0  0
  -12.2980  -22.6671   29.4871 H   0  0  0  0  0  0  0  0  0  0  0  0
  -11.1926  -23.9317   31.7322 H   0  0  0  0  0  0  0  0  0  0  0  0
   -7.4893  -19.4566   34.5749 H   0  0  0  0  0  0  0  0  0  0  0  0
   -7.2187  -19.3978   33.0110 H   0  0  0  0  0  0  0  0  0  0  0  0
  1  2  2  0
  2  3  1  0
  3  4  1  0
  4  5  1  0
  5  6  1  0
  6  7  1  0
  7  8  2  0
  8  9  1  0
  9 10  2  0
 10 11  1  0
 11 12  2  0
 12 13  1  0
 13 14  2  0
  2 15  1  0
 15 16  1  0
 16 17  1  0
 17 18  1  0
 18 19  1  0
 19 20  1  0
 20 21  2  0
 21 22  1  0
 22 23  2  0
 23 24  1  0
 24 25  2  0
 19 26  1  0
 14  6  1  0
 26 15  1  0
 14  9  1  0
 25 20  1  0
  3 27  1  0
  4 28  1  0
  4 29  1  0
  5 30  1  0
  5 31  1  0
  7 32  1  0
  8 33  1  0
 10 34  1  0
 11 35  1  0
 12 36  1  0
 13 37  1  0
 15 38  1  0
 16 39  1  0
 16 40  1  0
 17 41  1  0
 17 42  1  0
 18 43  1  0
 18 44  1  0
 22 45  1  0
 23 46  1  0
 24 47  1  0
 26 48  1  0
 26 49  1  0
M  END
>  <Energy>  (1273) 
945.64791278172117

>  <compound_id>  (1273) 
75222

>  <target_id>  (1273) 
1

>  <reference_id>  (1273) 
40

>  <inspiration_ids>  (1273) 
[40, 54]

>  <energy_score>  (1273) 
967.911384752448

>  <distance_score>  (1273) 
4.608466558695476

>  <path>  (1273) 
/opt/xchem-fragalysis-2/maxwin/BulkDock/SCRATCH/511017/C75222-P40/C75222-P40.minimised.mol

>  <scratch_subdir>  (1273) 
/opt/xchem-fragalysis-2/maxwin/BulkDock/SCRATCH/511017/C75222-P40

>  <fragmenstein_runtime>  (1273) 
18.58069372177124

>  <fragmenstein_outcome>  (1273) 
too moved

>  <fragmenstein_mode>  (1273) 
expansion

>  <fragmenstein_error>  (1273) 


$$$$
C75222-P54
     RDKit          3D

 49 52  0  0  0  0  0  0  0  0999 V2000
   -6.7385  -14.1922   33.5833 O   0  0  0  0  0  0  0  0  0  0  0  0
   -7.0135  -15.3168   32.4506 C   0  0  0  0  0  0  0  0  0  0  0  0
   -6.5833  -14.8604   31.5624 N   0  0  0  0  0  0  0  0  0  0  0  0
   -5.8735  -13.4452   30.9778 C   0  0  0  0  0  0  0  0  0  0  0  0
   -6.1448  -12.6114   29.2012 C   0  0  0  0  0  0  0  0  0  0  0  0
   -5.7292  -11.4396   28.1829 N   0  0  0  0  0  0  0  0  0  0  0  0
   -6.5378  -11.2946   27.1683 C   0  0  0  0  0  0  0  0  0  0  0  0
   -5.8554  -10.0207   26.9521 C   0  0  0  0  0  0  0  0  0  0  0  0
   -5.5163   -9.1478   28.3798 C   0  0  0  0  0  0  0  0  0  0  0  0
   -4.5553   -7.7379   28.8866 C   0  0  0  0  0  0  0  0  0  0  0  0
   -3.2813   -7.3565   28.4572 C   0  0  0  0  0  0  0  0  0  0  0  0
   -2.7915   -8.3250   27.5782 C   0  0  0  0  0  0  0  0  0  0  0  0
   -3.5260   -9.6223   27.3125 C   0  0  0  0  0  0  0  0  0  0  0  0
   -4.7503  -10.1857   27.9852 C   0  0  0  0  0  0  0  0  0  0  0  0
   -7.7777  -16.5520   33.0901 C   0  0  0  0  0  0  0  0  0  0  0  0
   -9.4381  -16.3690   32.9435 C   0  0  0  0  0  0  0  0  0  0  0  0
  -10.3413  -17.5190   32.4524 C   0  0  0  0  0  0  0  0  0  0  0  0
  -10.2065  -18.9878   32.6669 C   0  0  0  0  0  0  0  0  0  0  0  0
   -8.7719  -19.4480   32.6331 N   0  0  0  0  0  0  0  0  0  0  0  0
   -8.9081  -20.8614   32.8365 C   0  0  0  0  0  0  0  0  0  0  0  0
  -10.0196  -21.4387   32.2985 N   0  0  0  0  0  0  0  0  0  0  0  0
  -10.1342  -22.7673   32.1824 C   0  0  0  0  0  0  0  0  0  0  0  0
   -9.1690  -23.6147   32.6153 C   0  0  0  0  0  0  0  0  0  0  0  0
   -8.1012  -22.9832   33.1911 C   0  0  0  0  0  0  0  0  0  0  0  0
   -7.9595  -21.6440   33.3173 N   0  0  0  0  0  0  0  0  0  0  0  0
   -7.4349  -18.2385   32.9724 C   0  0  0  0  0  0  0  0  0  0  0  0
   -6.2921  -14.8459   30.6374 H   0  0  0  0  0  0  0  0  0  0  0  0
   -4.8146  -13.5902   31.1699 H   0  0  0  0  0  0  0  0  0  0  0  0
   -6.2292  -12.8140   31.7984 H   0  0  0  0  0  0  0  0  0  0  0  0
   -5.8504  -13.4423   28.5331 H   0  0  0  0  0  0  0  0  0  0  0  0
   -7.0992  -12.0829   29.4341 H   0  0  0  0  0  0  0  0  0  0  0  0
   -7.1004  -12.0185   26.5854 H   0  0  0  0  0  0  0  0  0  0  0  0
   -5.4418   -9.9612   25.9525 H   0  0  0  0  0  0  0  0  0  0  0  0
   -5.1186   -7.0140   29.4857 H   0  0  0  0  0  0  0  0  0  0  0  0
   -2.8268   -6.4134   28.7152 H   0  0  0  0  0  0  0  0  0  0  0  0
   -1.9167   -8.0631   26.9853 H   0  0  0  0  0  0  0  0  0  0  0  0
   -3.2749  -10.1950   26.4851 H   0  0  0  0  0  0  0  0  0  0  0  0
   -7.2165  -16.3616   34.0048 H   0  0  0  0  0  0  0  0  0  0  0  0
  -10.0873  -16.0384   33.7759 H   0  0  0  0  0  0  0  0  0  0  0  0
   -9.4815  -15.3936   32.5048 H   0  0  0  0  0  0  0  0  0  0  0  0
  -11.3457  -17.2814   32.7944 H   0  0  0  0  0  0  0  0  0  0  0  0
  -10.2798  -17.5613   31.3933 H   0  0  0  0  0  0  0  0  0  0  0  0
  -10.7059  -19.2776   33.6069 H   0  0  0  0  0  0  0  0  0  0  0  0
  -10.8054  -19.4457   31.8633 H   0  0  0  0  0  0  0  0  0  0  0  0
  -11.0458  -23.1121   31.7088 H   0  0  0  0  0  0  0  0  0  0  0  0
   -9.2256  -24.6852   32.5099 H   0  0  0  0  0  0  0  0  0  0  0  0
   -7.2563  -23.5555   33.5512 H   0  0  0  0  0  0  0  0  0  0  0  0
   -6.4929  -18.0748   32.4083 H   0  0  0  0  0  0  0  0  0  0  0  0
   -7.1359  -18.8033   33.7977 H   0  0  0  0  0  0  0  0  0  0  0  0
  1  2  2  0
  2  3  1  0
  3  4  1  0
  4  5  1  0
  5  6  1  0
  6  7  1  0
  7  8  2  0
  8  9  1  0
  9 10  2  0
 10 11  1  0
 11 12  2  0
 12 13  1  0
 13 14  2  0
  2 15  1  0
 15 16  1  0
 16 17  1  0
 17 18  1  0
 18 19  1  0
 19 20  1  0
 20 21  2  0
 21 22  1  0
 22 23  2  0
 23 24  1  0
 24 25  2  0
 19 26  1  0
 14  6  1  0
 26 15  1  0
 14  9  1  0
 25 20  1  0
  3 27  1  0
  4 28  1  0
  4 29  1  0
  5 30  1  0
  5 31  1  0
  7 32  1  0
  8 33  1  0
 10 34  1  0
 11 35  1  0
 12 36  1  0
 13 37  1  0
 15 38  1  0
 16 39  1  0
 16 40  1  0
 17 41  1  0
 17 42  1  0
 18 43  1  0
 18 44  1  0
 22 45  1  0
 23 46  1  0
 24 47  1  0
 26 48  1  0
 26 49  1  0
M  END
>  <Energy>  (1274) 
702.40777108241662

>  <compound_id>  (1274) 
75222

>  <target_id>  (1274) 
1

>  <reference_id>  (1274) 
54

>  <inspiration_ids>  (1274) 
[40, 54]

>  <energy_score>  (1274) 
724.671243053157

>  <distance_score>  (1274) 
6.199115609033865

>  <path>  (1274) 
/opt/xchem-fragalysis-2/maxwin/BulkDock/SCRATCH/511017/C75222-P54/C75222-P54.minimised.mol

>  <scratch_subdir>  (1274) 
/opt/xchem-fragalysis-2/maxwin/BulkDock/SCRATCH/511017/C75222-P54

>  <fragmenstein_runtime>  (1274) 
20.753612279891968

>  <fragmenstein_outcome>  (1274) 
too moved

>  <fragmenstein_mode>  (1274) 
expansion

>  <fragmenstein_error>  (1274) 


$$$$
C75236-P40
     RDKit          3D

 45 47  0  0  0  0  0  0  0  0999 V2000
    1.5195  -16.6482   33.4270 C   0  0  0  0  0  0  0  0  0  0  0  0
    0.1511  -16.0936   33.0275 C   0  0  0  0  0  0  0  0  0  0  0  0
   -0.1818  -15.0222   34.0458 C   0  0  0  0  0  0  0  0  0  0  0  0
    0.0016  -15.6686   31.5257 C   0  0  0  0  0  0  0  0  0  0  0  0
    0.7288  -14.2942   30.9777 C   0  0  0  0  0  0  0  0  0  0  0  0
    0.3315  -12.8037   31.0311 N   0  0  0  0  0  0  0  0  0  0  0  0
   -0.9155  -12.0943   30.5562 C   0  0  0  0  0  0  0  0  0  0  0  0
   -1.9204  -12.5364   30.1010 O   0  0  0  0  0  0  0  0  0  0  0  0
   -0.9148  -10.3475   30.5213 C   0  0  0  0  0  0  0  0  0  0  0  0
   -0.5394   -9.7880   29.3234 C   0  0  0  0  0  0  0  0  0  0  0  0
   -0.1575   -8.4938   29.3614 N   0  0  0  0  0  0  0  0  0  0  0  0
   -0.4050   -7.9904   30.5924 C   0  0  0  0  0  0  0  0  0  0  0  0
   -0.1454   -6.6874   31.0434 C   0  0  0  0  0  0  0  0  0  0  0  0
   -0.5314   -6.3673   32.3291 C   0  0  0  0  0  0  0  0  0  0  0  0
   -1.2567   -7.2886   33.0553 C   0  0  0  0  0  0  0  0  0  0  0  0
   -1.5713   -8.5546   32.5257 C   0  0  0  0  0  0  0  0  0  0  0  0
   -1.0185   -9.0358   31.3310 C   0  0  0  0  0  0  0  0  0  0  0  0
    0.5614  -16.7866   30.6794 N   0  0  0  0  0  0  0  0  0  0  0  0
    0.3936  -18.1640   30.7207 C   0  0  0  0  0  0  0  0  0  0  0  0
    0.5452  -18.7659   29.5207 N   0  0  0  0  0  0  0  0  0  0  0  0
    0.1411  -20.0510   29.3870 C   0  0  0  0  0  0  0  0  0  0  0  0
   -0.3192  -20.8047   30.4282 C   0  0  0  0  0  0  0  0  0  0  0  0
   -0.3188  -20.1464   31.6293 C   0  0  0  0  0  0  0  0  0  0  0  0
   -0.0453  -18.8317   31.7918 N   0  0  0  0  0  0  0  0  0  0  0  0
    2.2944  -15.8810   33.3152 H   0  0  0  0  0  0  0  0  0  0  0  0
    1.8441  -17.5121   32.8468 H   0  0  0  0  0  0  0  0  0  0  0  0
    1.5178  -16.9626   34.4775 H   0  0  0  0  0  0  0  0  0  0  0  0
   -0.5601  -16.9088   33.1928 H   0  0  0  0  0  0  0  0  0  0  0  0
   -1.0470  -14.4640   33.7308 H   0  0  0  0  0  0  0  0  0  0  0  0
    0.6373  -14.3331   34.2247 H   0  0  0  0  0  0  0  0  0  0  0  0
   -0.4130  -15.4808   35.0146 H   0  0  0  0  0  0  0  0  0  0  0  0
   -1.0570  -15.5109   31.3204 H   0  0  0  0  0  0  0  0  0  0  0  0
    1.7506  -14.3105   31.3750 H   0  0  0  0  0  0  0  0  0  0  0  0
    0.8455  -14.4447   29.8981 H   0  0  0  0  0  0  0  0  0  0  0  0
    1.0334  -12.1146   31.2801 H   0  0  0  0  0  0  0  0  0  0  0  0
   -0.6016  -10.3285   28.4291 H   0  0  0  0  0  0  0  0  0  0  0  0
    0.1639   -7.9281   28.5902 H   0  0  0  0  0  0  0  0  0  0  0  0
    0.3526   -5.9520   30.4195 H   0  0  0  0  0  0  0  0  0  0  0  0
   -0.3338   -5.3822   32.7437 H   0  0  0  0  0  0  0  0  0  0  0  0
   -1.6429   -7.0174   34.0373 H   0  0  0  0  0  0  0  0  0  0  0  0
   -2.3196   -9.1154   33.0603 H   0  0  0  0  0  0  0  0  0  0  0  0
    0.6120  -16.5750   29.6856 H   0  0  0  0  0  0  0  0  0  0  0  0
    0.2388  -20.4631   28.3873 H   0  0  0  0  0  0  0  0  0  0  0  0
   -0.5783  -21.8486   30.3331 H   0  0  0  0  0  0  0  0  0  0  0  0
   -0.4960  -20.6809   32.5527 H   0  0  0  0  0  0  0  0  0  0  0  0
  1  2  1  0
  2  3  1  0
  2  4  1  0
  4  5  1  0
  5  6  1  0
  6  7  1  0
  7  8  2  0
  7  9  1  0
  9 10  2  0
 10 11  1  0
 11 12  1  0
 12 13  2  0
 13 14  1  0
 14 15  2  0
 15 16  1  0
 16 17  2  0
  4 18  1  0
 18 19  1  0
 19 20  2  0
 20 21  1  0
 21 22  2  0
 22 23  1  0
 23 24  2  0
 17  9  1  0
 24 19  1  0
 17 12  1  0
  1 25  1  0
  1 26  1  0
  1 27  1  0
  2 28  1  0
  3 29  1  0
  3 30  1  0
  3 31  1  0
  4 32  1  0
  5 33  1  0
  5 34  1  0
  6 35  1  0
 10 36  1  0
 11 37  1  0
 13 38  1  0
 14 39  1  0
 15 40  1  0
 16 41  1  0
 18 42  1  0
 21 43  1  0
 22 44  1  0
 23 45  1  0
M  END
>  <Energy>  (1275) 
54.04034449002453

>  <compound_id>  (1275) 
75236

>  <target_id>  (1275) 
1

>  <reference_id>  (1275) 
40

>  <inspiration_ids>  (1275) 
[40, 54]

>  <energy_score>  (1275) 
47.628548912107135

>  <distance_score>  (1275) 
9.75413178734067

>  <path>  (1275) 
/opt/xchem-fragalysis-2/maxwin/BulkDock/SCRATCH/511017/C75236-P40/C75236-P40.minimised.mol

>  <scratch_subdir>  (1275) 
/opt/xchem-fragalysis-2/maxwin/BulkDock/SCRATCH/511017/C75236-P40

>  <fragmenstein_runtime>  (1275) 
25.19513511657715

>  <fragmenstein_outcome>  (1275) 
too moved

>  <fragmenstein_mode>  (1275) 
expansion

>  <fragmenstein_error>  (1275) 


$$$$
C75236-P54
     RDKit          3D

 45 47  0  0  0  0  0  0  0  0999 V2000
   -6.8011  -16.1603   32.8490 C   0  0  0  0  0  0  0  0  0  0  0  0
   -7.5530  -14.8712   32.9489 C   0  0  0  0  0  0  0  0  0  0  0  0
   -9.0562  -14.8105   32.9780 C   0  0  0  0  0  0  0  0  0  0  0  0
   -6.8071  -13.8202   33.7706 C   0  0  0  0  0  0  0  0  0  0  0  0
   -5.9427  -13.0995   32.6510 C   0  0  0  0  0  0  0  0  0  0  0  0
   -5.8154  -11.6747   32.5276 N   0  0  0  0  0  0  0  0  0  0  0  0
   -4.4598  -10.4732   33.0544 C   0  0  0  0  0  0  0  0  0  0  0  0
   -3.5600  -10.8954   33.6671 O   0  0  0  0  0  0  0  0  0  0  0  0
   -4.1781   -8.5400   32.7094 C   0  0  0  0  0  0  0  0  0  0  0  0
   -3.0486   -8.1019   32.1695 C   0  0  0  0  0  0  0  0  0  0  0  0
   -2.6047   -6.9302   31.6458 N   0  0  0  0  0  0  0  0  0  0  0  0
   -3.5292   -5.9414   31.7187 C   0  0  0  0  0  0  0  0  0  0  0  0
   -3.3260   -4.8468   30.8791 C   0  0  0  0  0  0  0  0  0  0  0  0
   -3.7166   -5.2482   29.6188 C   0  0  0  0  0  0  0  0  0  0  0  0
   -4.9080   -5.9356   29.5609 C   0  0  0  0  0  0  0  0  0  0  0  0
   -5.5083   -6.4117   30.7641 C   0  0  0  0  0  0  0  0  0  0  0  0
   -4.6795   -6.7514   32.0566 C   0  0  0  0  0  0  0  0  0  0  0  0
   -7.7185  -12.9064   34.4575 N   0  0  0  0  0  0  0  0  0  0  0  0
   -8.2832  -13.3273   35.6604 C   0  0  0  0  0  0  0  0  0  0  0  0
   -9.5838  -13.6740   35.6677 N   0  0  0  0  0  0  0  0  0  0  0  0
  -10.2617  -13.7847   36.8189 C   0  0  0  0  0  0  0  0  0  0  0  0
   -9.6714  -13.5401   38.0203 C   0  0  0  0  0  0  0  0  0  0  0  0
   -8.3353  -13.2194   37.9475 C   0  0  0  0  0  0  0  0  0  0  0  0
   -7.6314  -13.1234   36.7985 N   0  0  0  0  0  0  0  0  0  0  0  0
   -6.3932  -16.3269   31.8448 H   0  0  0  0  0  0  0  0  0  0  0  0
   -5.8996  -16.0463   33.3616 H   0  0  0  0  0  0  0  0  0  0  0  0
   -7.2912  -17.0303   33.2448 H   0  0  0  0  0  0  0  0  0  0  0  0
   -7.3979  -14.6069   31.9099 H   0  0  0  0  0  0  0  0  0  0  0  0
   -9.6242  -14.6226   33.8668 H   0  0  0  0  0  0  0  0  0  0  0  0
   -9.3370  -13.9418   32.3724 H   0  0  0  0  0  0  0  0  0  0  0  0
   -9.4519  -15.7757   32.6580 H   0  0  0  0  0  0  0  0  0  0  0  0
   -6.1555  -14.2890   34.5033 H   0  0  0  0  0  0  0  0  0  0  0  0
   -5.2819  -13.6752   31.9969 H   0  0  0  0  0  0  0  0  0  0  0  0
   -6.7210  -13.0643   31.8794 H   0  0  0  0  0  0  0  0  0  0  0  0
   -6.5682  -11.1495   32.0886 H   0  0  0  0  0  0  0  0  0  0  0  0
   -2.5298   -8.8632   31.5791 H   0  0  0  0  0  0  0  0  0  0  0  0
   -1.8308   -6.9262   31.0265 H   0  0  0  0  0  0  0  0  0  0  0  0
   -2.4208   -4.2438   30.9477 H   0  0  0  0  0  0  0  0  0  0  0  0
   -3.2653   -4.8144   28.7316 H   0  0  0  0  0  0  0  0  0  0  0  0
   -5.4971   -5.9243   28.6525 H   0  0  0  0  0  0  0  0  0  0  0  0
   -6.5172   -6.7936   30.5796 H   0  0  0  0  0  0  0  0  0  0  0  0
   -8.4793  -12.6594   33.8276 H   0  0  0  0  0  0  0  0  0  0  0  0
  -11.3038  -14.0673   36.7260 H   0  0  0  0  0  0  0  0  0  0  0  0
  -10.2009  -13.6074   38.9584 H   0  0  0  0  0  0  0  0  0  0  0  0
   -7.7584  -13.0203   38.8460 H   0  0  0  0  0  0  0  0  0  0  0  0
  1  2  1  0
  2  3  1  0
  2  4  1  0
  4  5  1  0
  5  6  1  0
  6  7  1  0
  7  8  2  0
  7  9  1  0
  9 10  2  0
 10 11  1  0
 11 12  1  0
 12 13  2  0
 13 14  1  0
 14 15  2  0
 15 16  1  0
 16 17  2  0
  4 18  1  0
 18 19  1  0
 19 20  2  0
 20 21  1  0
 21 22  2  0
 22 23  1  0
 23 24  2  0
 17  9  1  0
 24 19  1  0
 17 12  1  0
  1 25  1  0
  1 26  1  0
  1 27  1  0
  2 28  1  0
  3 29  1  0
  3 30  1  0
  3 31  1  0
  4 32  1  0
  5 33  1  0
  5 34  1  0
  6 35  1  0
 10 36  1  0
 11 37  1  0
 13 38  1  0
 14 39  1  0
 15 40  1  0
 16 41  1  0
 18 42  1  0
 21 43  1  0
 22 44  1  0
 23 45  1  0
M  END
>  <Energy>  (1276) 
427.19334562613778

>  <compound_id>  (1276) 
75236

>  <target_id>  (1276) 
1

>  <reference_id>  (1276) 
54

>  <inspiration_ids>  (1276) 
[40, 54]

>  <energy_score>  (1276) 
420.7815500482083

>  <distance_score>  (1276) 
9.519327013289521

>  <path>  (1276) 
/opt/xchem-fragalysis-2/maxwin/BulkDock/SCRATCH/511017/C75236-P54/C75236-P54.minimised.mol

>  <scratch_subdir>  (1276) 
/opt/xchem-fragalysis-2/maxwin/BulkDock/SCRATCH/511017/C75236-P54

>  <fragmenstein_runtime>  (1276) 
26.599413871765137

>  <fragmenstein_outcome>  (1276) 
too moved

>  <fragmenstein_mode>  (1276) 
expansion

>  <fragmenstein_error>  (1276) 


$$$$
C75237-P40
     RDKit          3D

 48 50  0  0  0  0  0  0  0  0999 V2000
  -12.7771  -15.7663   33.9091 C   0  0  0  0  0  0  0  0  0  0  0  0
  -11.3622  -16.0077   34.5579 C   0  0  0  0  0  0  0  0  0  0  0  0
  -11.4844  -17.2765   35.4504 C   0  0  0  0  0  0  0  0  0  0  0  0
   -9.7830  -15.7820   33.7602 C   0  0  0  0  0  0  0  0  0  0  0  0
   -8.8894  -14.0400   33.0574 C   0  0  0  0  0  0  0  0  0  0  0  0
   -7.8572  -12.3969   33.5793 N   0  0  0  0  0  0  0  0  0  0  0  0
   -6.5760  -11.7401   32.9541 C   0  0  0  0  0  0  0  0  0  0  0  0
   -6.0310  -12.0617   31.9754 O   0  0  0  0  0  0  0  0  0  0  0  0
   -5.6357  -10.3475   33.9257 C   0  0  0  0  0  0  0  0  0  0  0  0
   -5.2184  -10.3192   35.3499 C   0  0  0  0  0  0  0  0  0  0  0  0
   -3.9710   -9.6977   35.6962 N   0  0  0  0  0  0  0  0  0  0  0  0
   -2.9377  -10.1925   36.6065 C   0  0  0  0  0  0  0  0  0  0  0  0
   -3.5148   -8.7948   34.7695 C   0  0  0  0  0  0  0  0  0  0  0  0
   -2.2530   -8.0302   34.7277 C   0  0  0  0  0  0  0  0  0  0  0  0
   -1.5675   -7.6989   33.5405 C   0  0  0  0  0  0  0  0  0  0  0  0
   -2.0876   -8.0779   32.3310 C   0  0  0  0  0  0  0  0  0  0  0  0
   -3.3695   -8.6635   32.3552 C   0  0  0  0  0  0  0  0  0  0  0  0
   -4.3251   -9.0173   33.6517 C   0  0  0  0  0  0  0  0  0  0  0  0
   -9.2076  -17.5912   33.9729 N   0  0  0  0  0  0  0  0  0  0  0  0
   -9.7097  -19.1372   33.4888 C   0  0  0  0  0  0  0  0  0  0  0  0
   -9.3216  -20.4437   33.6754 N   0  0  0  0  0  0  0  0  0  0  0  0
   -9.8847  -21.6392   32.3331 C   0  0  0  0  0  0  0  0  0  0  0  0
  -11.0351  -21.8672   31.2292 C   0  0  0  0  0  0  0  0  0  0  0  0
  -10.9949  -20.6469   31.0563 C   0  0  0  0  0  0  0  0  0  0  0  0
  -10.4918  -19.4903   32.2964 N   0  0  0  0  0  0  0  0  0  0  0  0
  -13.4271  -15.2171   34.6035 H   0  0  0  0  0  0  0  0  0  0  0  0
  -12.7374  -15.2066   32.9685 H   0  0  0  0  0  0  0  0  0  0  0  0
  -13.3156  -16.7036   33.7429 H   0  0  0  0  0  0  0  0  0  0  0  0
  -11.4023  -15.2532   35.2694 H   0  0  0  0  0  0  0  0  0  0  0  0
  -11.7812  -18.1518   34.8747 H   0  0  0  0  0  0  0  0  0  0  0  0
  -12.2786  -17.1249   36.1927 H   0  0  0  0  0  0  0  0  0  0  0  0
  -10.5745  -17.4871   36.0179 H   0  0  0  0  0  0  0  0  0  0  0  0
  -10.0592  -15.8660   32.7578 H   0  0  0  0  0  0  0  0  0  0  0  0
   -9.7241  -13.4955   32.8225 H   0  0  0  0  0  0  0  0  0  0  0  0
   -8.3618  -14.4601   32.2018 H   0  0  0  0  0  0  0  0  0  0  0  0
   -8.1550  -11.8183   34.4148 H   0  0  0  0  0  0  0  0  0  0  0  0
   -5.7669  -10.8210   36.1144 H   0  0  0  0  0  0  0  0  0  0  0  0
   -2.1697   -9.4516   36.7796 H   0  0  0  0  0  0  0  0  0  0  0  0
   -3.3316  -10.5870   37.5336 H   0  0  0  0  0  0  0  0  0  0  0  0
   -2.3470  -10.9869   36.1955 H   0  0  0  0  0  0  0  0  0  0  0  0
   -1.6761   -7.8716   35.6385 H   0  0  0  0  0  0  0  0  0  0  0  0
   -0.6029   -7.2039   33.5992 H   0  0  0  0  0  0  0  0  0  0  0  0
   -1.5778   -7.8435   31.4076 H   0  0  0  0  0  0  0  0  0  0  0  0
   -3.9110   -8.7922   31.4445 H   0  0  0  0  0  0  0  0  0  0  0  0
   -8.2522  -17.6918   33.6410 H   0  0  0  0  0  0  0  0  0  0  0  0
   -9.5152  -22.7451   32.5059 H   0  0  0  0  0  0  0  0  0  0  0  0
  -11.2922  -22.5785   30.5072 H   0  0  0  0  0  0  0  0  0  0  0  0
  -10.9977  -20.4820   29.9610 H   0  0  0  0  0  0  0  0  0  0  0  0
  1  2  1  0
  2  3  1  0
  2  4  1  0
  4  5  1  0
  5  6  1  0
  6  7  1  0
  7  8  2  0
  7  9  1  0
  9 10  2  0
 10 11  1  0
 11 12  1  0
 11 13  1  0
 13 14  2  0
 14 15  1  0
 15 16  2  0
 16 17  1  0
 17 18  2  0
  4 19  1  0
 19 20  1  0
 20 21  2  0
 21 22  1  0
 22 23  2  0
 23 24  1  0
 24 25  2  0
 18  9  1  0
 25 20  1  0
 18 13  1  0
  1 26  1  0
  1 27  1  0
  1 28  1  0
  2 29  1  0
  3 30  1  0
  3 31  1  0
  3 32  1  0
  4 33  1  0
  5 34  1  0
  5 35  1  0
  6 36  1  0
 10 37  1  0
 12 38  1  0
 12 39  1  0
 12 40  1  0
 14 41  1  0
 15 42  1  0
 16 43  1  0
 17 44  1  0
 19 45  1  0
 22 46  1  0
 23 47  1  0
 24 48  1  0
M  END
>  <Energy>  (1277) 
781.11776199369228

>  <compound_id>  (1277) 
75237

>  <target_id>  (1277) 
1

>  <reference_id>  (1277) 
40

>  <inspiration_ids>  (1277) 
[40, 54]

>  <energy_score>  (1277) 
777.508866331228

>  <distance_score>  (1277) 
6.5800912601943375

>  <path>  (1277) 
/opt/xchem-fragalysis-2/maxwin/BulkDock/SCRATCH/511017/C75237-P40/C75237-P40.minimised.mol

>  <scratch_subdir>  (1277) 
/opt/xchem-fragalysis-2/maxwin/BulkDock/SCRATCH/511017/C75237-P40

>  <fragmenstein_runtime>  (1277) 
26.736924648284912

>  <fragmenstein_outcome>  (1277) 
too moved

>  <fragmenstein_mode>  (1277) 
expansion

>  <fragmenstein_error>  (1277) 


$$$$
C75237-P54
     RDKit          3D

 48 50  0  0  0  0  0  0  0  0999 V2000
   -7.1996  -13.6448   36.8729 C   0  0  0  0  0  0  0  0  0  0  0  0
   -8.2484  -13.1655   35.9018 C   0  0  0  0  0  0  0  0  0  0  0  0
   -9.6228  -13.6292   36.4729 C   0  0  0  0  0  0  0  0  0  0  0  0
   -7.8144  -13.1017   34.3132 C   0  0  0  0  0  0  0  0  0  0  0  0
   -6.0837  -12.8586   33.8890 C   0  0  0  0  0  0  0  0  0  0  0  0
   -5.2392  -11.4068   32.8817 N   0  0  0  0  0  0  0  0  0  0  0  0
   -4.1437   -9.9182   33.4007 C   0  0  0  0  0  0  0  0  0  0  0  0
   -3.7969   -9.9170   34.5346 O   0  0  0  0  0  0  0  0  0  0  0  0
   -3.6038   -8.1455   32.5234 C   0  0  0  0  0  0  0  0  0  0  0  0
   -4.5578   -6.7234   32.2403 C   0  0  0  0  0  0  0  0  0  0  0  0
   -4.6822   -6.1930   30.7788 N   0  0  0  0  0  0  0  0  0  0  0  0
   -5.8509   -6.4464   29.9185 C   0  0  0  0  0  0  0  0  0  0  0  0
   -3.3777   -6.3797   30.1935 C   0  0  0  0  0  0  0  0  0  0  0  0
   -2.9215   -5.6522   29.0613 C   0  0  0  0  0  0  0  0  0  0  0  0
   -2.1246   -4.5547   29.3154 C   0  0  0  0  0  0  0  0  0  0  0  0
   -2.0277   -4.2279   30.6271 C   0  0  0  0  0  0  0  0  0  0  0  0
   -2.4052   -5.2359   31.5762 C   0  0  0  0  0  0  0  0  0  0  0  0
   -2.6626   -6.8482   31.4142 C   0  0  0  0  0  0  0  0  0  0  0  0
   -8.4547  -14.1344   33.4438 N   0  0  0  0  0  0  0  0  0  0  0  0
   -9.7752  -14.5981   33.5165 C   0  0  0  0  0  0  0  0  0  0  0  0
   -9.9479  -15.9154   33.1897 N   0  0  0  0  0  0  0  0  0  0  0  0
  -11.0974  -16.5484   33.5480 C   0  0  0  0  0  0  0  0  0  0  0  0
  -12.1447  -15.9125   34.1414 C   0  0  0  0  0  0  0  0  0  0  0  0
  -11.9444  -14.5683   34.3111 C   0  0  0  0  0  0  0  0  0  0  0  0
  -10.7834  -13.9083   34.0471 N   0  0  0  0  0  0  0  0  0  0  0  0
   -6.7079  -14.5465   36.5113 H   0  0  0  0  0  0  0  0  0  0  0  0
   -7.5671  -13.8241   37.8906 H   0  0  0  0  0  0  0  0  0  0  0  0
   -6.4989  -12.8564   37.0324 H   0  0  0  0  0  0  0  0  0  0  0  0
   -8.3160  -12.1013   36.1526 H   0  0  0  0  0  0  0  0  0  0  0  0
   -9.5961  -13.6655   37.5710 H   0  0  0  0  0  0  0  0  0  0  0  0
  -10.4380  -12.9309   36.3052 H   0  0  0  0  0  0  0  0  0  0  0  0
   -9.9567  -14.6067   36.1520 H   0  0  0  0  0  0  0  0  0  0  0  0
   -8.2014  -12.1515   34.0715 H   0  0  0  0  0  0  0  0  0  0  0  0
   -6.0135  -13.6738   33.1508 H   0  0  0  0  0  0  0  0  0  0  0  0
   -5.6998  -12.9753   34.8606 H   0  0  0  0  0  0  0  0  0  0  0  0
   -5.5060  -11.2795   32.0477 H   0  0  0  0  0  0  0  0  0  0  0  0
   -5.4428   -6.2907   32.6880 H   0  0  0  0  0  0  0  0  0  0  0  0
   -5.7339   -7.4148   29.4478 H   0  0  0  0  0  0  0  0  0  0  0  0
   -5.9056   -5.7239   29.1087 H   0  0  0  0  0  0  0  0  0  0  0  0
   -6.7751   -6.5363   30.4699 H   0  0  0  0  0  0  0  0  0  0  0  0
   -3.5937   -5.5055   28.2253 H   0  0  0  0  0  0  0  0  0  0  0  0
   -1.8743   -3.8407   28.5374 H   0  0  0  0  0  0  0  0  0  0  0  0
   -1.7769   -3.2217   30.9465 H   0  0  0  0  0  0  0  0  0  0  0  0
   -2.7706   -4.7145   32.4694 H   0  0  0  0  0  0  0  0  0  0  0  0
   -7.8759  -14.9180   33.1630 H   0  0  0  0  0  0  0  0  0  0  0  0
  -11.1379  -17.6031   33.2996 H   0  0  0  0  0  0  0  0  0  0  0  0
  -13.0669  -16.4076   34.3965 H   0  0  0  0  0  0  0  0  0  0  0  0
  -12.7288  -13.9363   34.7147 H   0  0  0  0  0  0  0  0  0  0  0  0
  1  2  1  0
  2  3  1  0
  2  4  1  0
  4  5  1  0
  5  6  1  0
  6  7  1  0
  7  8  2  0
  7  9  1  0
  9 10  2  0
 10 11  1  0
 11 12  1  0
 11 13  1  0
 13 14  2  0
 14 15  1  0
 15 16  2  0
 16 17  1  0
 17 18  2  0
  4 19  1  0
 19 20  1  0
 20 21  2  0
 21 22  1  0
 22 23  2  0
 23 24  1  0
 24 25  2  0
 18  9  1  0
 25 20  1  0
 18 13  1  0
  1 26  1  0
  1 27  1  0
  1 28  1  0
  2 29  1  0
  3 30  1  0
  3 31  1  0
  3 32  1  0
  4 33  1  0
  5 34  1  0
  5 35  1  0
  6 36  1  0
 10 37  1  0
 12 38  1  0
 12 39  1  0
 12 40  1  0
 14 41  1  0
 15 42  1  0
 16 43  1  0
 17 44  1  0
 19 45  1  0
 22 46  1  0
 23 47  1  0
 24 48  1  0
M  END
>  <Energy>  (1278) 
658.94022171172094

>  <compound_id>  (1278) 
75237

>  <target_id>  (1278) 
1

>  <reference_id>  (1278) 
54

>  <inspiration_ids>  (1278) 
[40, 54]

>  <energy_score>  (1278) 
655.3313260492546

>  <distance_score>  (1278) 
7.944395017042512

>  <path>  (1278) 
/opt/xchem-fragalysis-2/maxwin/BulkDock/SCRATCH/511017/C75237-P54/C75237-P54.minimised.mol

>  <scratch_subdir>  (1278) 
/opt/xchem-fragalysis-2/maxwin/BulkDock/SCRATCH/511017/C75237-P54

>  <fragmenstein_runtime>  (1278) 
24.578046560287476

>  <fragmenstein_outcome>  (1278) 
too moved

>  <fragmenstein_mode>  (1278) 
expansion

>  <fragmenstein_error>  (1278) 


$$$$
C75239-P40
     RDKit          3D

 48 50  0  0  0  0  0  0  0  0999 V2000
   -6.6326  -10.1060   30.1175 C   0  0  0  0  0  0  0  0  0  0  0  0
   -5.9430  -11.3411   31.5320 C   0  0  0  0  0  0  0  0  0  0  0  0
   -5.9941  -10.7678   33.0311 N   0  0  0  0  0  0  0  0  0  0  0  0
   -5.0902   -9.3894   33.5903 C   0  0  0  0  0  0  0  0  0  0  0  0
   -3.7366   -8.9884   34.1224 C   0  0  0  0  0  0  0  0  0  0  0  0
   -3.3831   -9.0769   35.4377 C   0  0  0  0  0  0  0  0  0  0  0  0
   -4.2755   -9.6880   36.2542 C   0  0  0  0  0  0  0  0  0  0  0  0
   -5.3282  -10.4169   35.6871 C   0  0  0  0  0  0  0  0  0  0  0  0
   -5.5182  -10.5627   34.2878 C   0  0  0  0  0  0  0  0  0  0  0  0
   -5.5444  -11.9774   32.8965 C   0  0  0  0  0  0  0  0  0  0  0  0
   -6.2160  -13.2066   33.3467 C   0  0  0  0  0  0  0  0  0  0  0  0
   -7.4010  -13.2242   32.8782 O   0  0  0  0  0  0  0  0  0  0  0  0
   -5.4279  -14.5009   34.6753 N   0  0  0  0  0  0  0  0  0  0  0  0
   -6.3494  -16.1042   35.7911 C   0  0  0  0  0  0  0  0  0  0  0  0
   -8.2328  -16.9965   35.4793 C   0  0  0  0  0  0  0  0  0  0  0  0
   -8.6031  -18.2453   34.1648 N   0  0  0  0  0  0  0  0  0  0  0  0
   -9.4686  -19.3588   33.7537 C   0  0  0  0  0  0  0  0  0  0  0  0
  -10.3482  -19.4267   32.5042 N   0  0  0  0  0  0  0  0  0  0  0  0
  -10.8878  -20.5312   31.1891 C   0  0  0  0  0  0  0  0  0  0  0  0
  -10.9919  -21.7753   31.2059 C   0  0  0  0  0  0  0  0  0  0  0  0
   -9.8618  -21.6828   32.3349 C   0  0  0  0  0  0  0  0  0  0  0  0
   -9.1338  -20.6463   33.7231 N   0  0  0  0  0  0  0  0  0  0  0  0
   -8.8158  -17.7593   36.7446 C   0  0  0  0  0  0  0  0  0  0  0  0
   -8.4954  -17.1341   38.1089 C   0  0  0  0  0  0  0  0  0  0  0  0
  -10.3456  -17.9517   36.5908 C   0  0  0  0  0  0  0  0  0  0  0  0
   -6.4456  -10.4761   29.1399 H   0  0  0  0  0  0  0  0  0  0  0  0
   -6.3445   -9.0337   30.2016 H   0  0  0  0  0  0  0  0  0  0  0  0
   -7.7447   -9.9818   30.1376 H   0  0  0  0  0  0  0  0  0  0  0  0
   -6.9934  -10.8800   33.3557 H   0  0  0  0  0  0  0  0  0  0  0  0
   -2.9559   -8.7073   33.4039 H   0  0  0  0  0  0  0  0  0  0  0  0
   -2.4283   -8.6989   35.7889 H   0  0  0  0  0  0  0  0  0  0  0  0
   -4.0859   -9.7583   37.3231 H   0  0  0  0  0  0  0  0  0  0  0  0
   -5.9752  -11.0331   36.2809 H   0  0  0  0  0  0  0  0  0  0  0  0
   -4.4818  -14.2015   34.9416 H   0  0  0  0  0  0  0  0  0  0  0  0
   -5.4439  -16.7183   36.2475 H   0  0  0  0  0  0  0  0  0  0  0  0
   -6.9396  -16.2859   36.8050 H   0  0  0  0  0  0  0  0  0  0  0  0
   -8.9449  -16.2753   35.1233 H   0  0  0  0  0  0  0  0  0  0  0  0
   -7.8558  -18.3261   33.4708 H   0  0  0  0  0  0  0  0  0  0  0  0
  -10.8257  -20.3721   30.0875 H   0  0  0  0  0  0  0  0  0  0  0  0
  -11.3057  -22.4468   30.4562 H   0  0  0  0  0  0  0  0  0  0  0  0
   -9.5841  -22.8352   32.5109 H   0  0  0  0  0  0  0  0  0  0  0  0
   -8.3666  -18.7612   36.7439 H   0  0  0  0  0  0  0  0  0  0  0  0
   -9.2434  -17.3355   38.8749 H   0  0  0  0  0  0  0  0  0  0  0  0
   -7.5362  -17.5090   38.4842 H   0  0  0  0  0  0  0  0  0  0  0  0
   -8.4399  -16.0429   38.0857 H   0  0  0  0  0  0  0  0  0  0  0  0
  -10.7379  -17.5445   35.6537 H   0  0  0  0  0  0  0  0  0  0  0  0
  -10.5949  -19.0186   36.6039 H   0  0  0  0  0  0  0  0  0  0  0  0
  -10.9090  -17.4747   37.3997 H   0  0  0  0  0  0  0  0  0  0  0  0
  1  2  1  0
  2  3  1  0
  3  4  1  0
  4  5  2  0
  5  6  1  0
  6  7  2  0
  7  8  1  0
  8  9  2  0
  9 10  1  0
 10 11  1  0
 11 12  2  0
 11 13  1  0
 13 14  1  0
 14 15  1  0
 15 16  1  0
 16 17  1  0
 17 18  2  0
 18 19  1  0
 19 20  2  0
 20 21  1  0
 21 22  2  0
 15 23  1  0
 23 24  1  0
 23 25  1  0
 10  2  2  0
 22 17  1  0
  9  4  1  0
  1 26  1  0
  1 27  1  0
  1 28  1  0
  3 29  1  0
  5 30  1  0
  6 31  1  0
  7 32  1  0
  8 33  1  0
 13 34  1  0
 14 35  1  0
 14 36  1  0
 15 37  1  0
 16 38  1  0
 19 39  1  0
 20 40  1  0
 21 41  1  0
 23 42  1  0
 24 43  1  0
 24 44  1  0
 24 45  1  0
 25 46  1  0
 25 47  1  0
 25 48  1  0
M  END
>  <Energy>  (1279) 
1237.9144588479169

>  <compound_id>  (1279) 
75239

>  <target_id>  (1279) 
1

>  <reference_id>  (1279) 
40

>  <inspiration_ids>  (1279) 
[40, 54]

>  <energy_score>  (1279) 
1243.6861541422822

>  <distance_score>  (1279) 
7.821657039710413

>  <path>  (1279) 
/opt/xchem-fragalysis-2/maxwin/BulkDock/SCRATCH/511017/C75239-P40/C75239-P40.minimised.mol

>  <scratch_subdir>  (1279) 
/opt/xchem-fragalysis-2/maxwin/BulkDock/SCRATCH/511017/C75239-P40

>  <fragmenstein_runtime>  (1279) 
22.26080012321472

>  <fragmenstein_outcome>  (1279) 
too moved

>  <fragmenstein_mode>  (1279) 
expansion

>  <fragmenstein_error>  (1279) 


$$$$
C75239-P54
     RDKit          3D

 48 50  0  0  0  0  0  0  0  0999 V2000
    0.9695   -9.2028   31.8587 C   0  0  0  0  0  0  0  0  0  0  0  0
    0.0209   -9.7259   30.7497 C   0  0  0  0  0  0  0  0  0  0  0  0
    0.7659   -9.9630   29.6795 N   0  0  0  0  0  0  0  0  0  0  0  0
   -0.0445   -9.7426   28.5324 C   0  0  0  0  0  0  0  0  0  0  0  0
    0.5360   -8.6912   26.9964 C   0  0  0  0  0  0  0  0  0  0  0  0
   -0.1796   -7.8524   26.1822 C   0  0  0  0  0  0  0  0  0  0  0  0
   -1.4483   -7.7224   26.6547 C   0  0  0  0  0  0  0  0  0  0  0  0
   -2.0508   -8.5920   27.8033 C   0  0  0  0  0  0  0  0  0  0  0  0
   -1.2574   -9.8436   28.8446 C   0  0  0  0  0  0  0  0  0  0  0  0
   -1.1087  -10.6497   30.3150 C   0  0  0  0  0  0  0  0  0  0  0  0
   -2.4289  -11.5173   31.1488 C   0  0  0  0  0  0  0  0  0  0  0  0
   -2.8661  -10.8512   31.9719 O   0  0  0  0  0  0  0  0  0  0  0  0
   -3.1093  -12.9937   30.7517 N   0  0  0  0  0  0  0  0  0  0  0  0
   -4.6661  -13.8130   31.3363 C   0  0  0  0  0  0  0  0  0  0  0  0
   -6.2004  -14.0878   32.1380 C   0  0  0  0  0  0  0  0  0  0  0  0
   -6.5145  -13.5439   33.4847 N   0  0  0  0  0  0  0  0  0  0  0  0
   -7.8047  -13.4657   34.0236 C   0  0  0  0  0  0  0  0  0  0  0  0
   -8.9210  -13.7490   33.3403 N   0  0  0  0  0  0  0  0  0  0  0  0
  -10.0518  -14.0143   34.0493 C   0  0  0  0  0  0  0  0  0  0  0  0
  -10.1352  -13.9825   35.4133 C   0  0  0  0  0  0  0  0  0  0  0  0
   -8.9871  -13.5331   36.0082 C   0  0  0  0  0  0  0  0  0  0  0  0
   -7.8232  -13.3255   35.3572 N   0  0  0  0  0  0  0  0  0  0  0  0
   -6.5392  -15.5911   31.9578 C   0  0  0  0  0  0  0  0  0  0  0  0
   -5.6496  -16.8000   31.9514 C   0  0  0  0  0  0  0  0  0  0  0  0
   -7.4089  -16.0251   33.0720 C   0  0  0  0  0  0  0  0  0  0  0  0
    0.5824   -8.3024   32.3235 H   0  0  0  0  0  0  0  0  0  0  0  0
    1.9556   -8.9203   31.4700 H   0  0  0  0  0  0  0  0  0  0  0  0
    1.2261   -9.9756   32.5920 H   0  0  0  0  0  0  0  0  0  0  0  0
    1.7563   -9.7639   29.6811 H   0  0  0  0  0  0  0  0  0  0  0  0
    1.6182   -8.5534   26.8868 H   0  0  0  0  0  0  0  0  0  0  0  0
    0.2021   -7.3794   25.3017 H   0  0  0  0  0  0  0  0  0  0  0  0
   -1.9033   -6.9277   26.1201 H   0  0  0  0  0  0  0  0  0  0  0  0
   -3.1241   -8.4402   27.9261 H   0  0  0  0  0  0  0  0  0  0  0  0
   -2.5175  -13.4468   30.0621 H   0  0  0  0  0  0  0  0  0  0  0  0
   -4.9056  -12.8163   31.7011 H   0  0  0  0  0  0  0  0  0  0  0  0
   -5.2607  -13.8030   30.4164 H   0  0  0  0  0  0  0  0  0  0  0  0
   -6.9183  -13.5157   31.5505 H   0  0  0  0  0  0  0  0  0  0  0  0
   -5.9727  -13.8683   34.2883 H   0  0  0  0  0  0  0  0  0  0  0  0
  -10.9548  -14.2098   33.4993 H   0  0  0  0  0  0  0  0  0  0  0  0
  -11.0511  -14.1704   35.9494 H   0  0  0  0  0  0  0  0  0  0  0  0
   -8.9498  -13.3336   37.0751 H   0  0  0  0  0  0  0  0  0  0  0  0
   -6.9607  -15.6170   30.9682 H   0  0  0  0  0  0  0  0  0  0  0  0
   -5.1929  -16.7909   32.8883 H   0  0  0  0  0  0  0  0  0  0  0  0
   -6.1698  -17.7350   32.0128 H   0  0  0  0  0  0  0  0  0  0  0  0
   -5.0154  -17.0662   31.1452 H   0  0  0  0  0  0  0  0  0  0  0  0
   -6.9952  -15.6820   34.0171 H   0  0  0  0  0  0  0  0  0  0  0  0
   -7.4098  -17.0954   33.2500 H   0  0  0  0  0  0  0  0  0  0  0  0
   -8.4429  -15.7895   32.8490 H   0  0  0  0  0  0  0  0  0  0  0  0
  1  2  1  0
  2  3  1  0
  3  4  1  0
  4  5  2  0
  5  6  1  0
  6  7  2  0
  7  8  1  0
  8  9  2  0
  9 10  1  0
 10 11  1  0
 11 12  2  0
 11 13  1  0
 13 14  1  0
 14 15  1  0
 15 16  1  0
 16 17  1  0
 17 18  2  0
 18 19  1  0
 19 20  2  0
 20 21  1  0
 21 22  2  0
 15 23  1  0
 23 24  1  0
 23 25  1  0
 10  2  2  0
 22 17  1  0
  9  4  1  0
  1 26  1  0
  1 27  1  0
  1 28  1  0
  3 29  1  0
  5 30  1  0
  6 31  1  0
  7 32  1  0
  8 33  1  0
 13 34  1  0
 14 35  1  0
 14 36  1  0
 15 37  1  0
 16 38  1  0
 19 39  1  0
 20 40  1  0
 21 41  1  0
 23 42  1  0
 24 43  1  0
 24 44  1  0
 24 45  1  0
 25 46  1  0
 25 47  1  0
 25 48  1  0
M  END
>  <Energy>  (1280) 
485.24164767124148

>  <compound_id>  (1280) 
75239

>  <target_id>  (1280) 
1

>  <reference_id>  (1280) 
54

>  <inspiration_ids>  (1280) 
[40, 54]

>  <energy_score>  (1280) 
491.0133429656249

>  <distance_score>  (1280) 
8.552045524305377

>  <path>  (1280) 
/opt/xchem-fragalysis-2/maxwin/BulkDock/SCRATCH/511017/C75239-P54/C75239-P54.minimised.mol

>  <scratch_subdir>  (1280) 
/opt/xchem-fragalysis-2/maxwin/BulkDock/SCRATCH/511017/C75239-P54

>  <fragmenstein_runtime>  (1280) 
23.91663098335266

>  <fragmenstein_outcome>  (1280) 
too moved

>  <fragmenstein_mode>  (1280) 
expansion

>  <fragmenstein_error>  (1280) 


$$$$
C75242-P40
     RDKit          3D

 45 47  0  0  0  0  0  0  0  0999 V2000
   -9.2295  -24.4842   32.5321 C   0  0  0  0  0  0  0  0  0  0  0  0
  -10.4835  -23.8573   32.1227 C   0  0  0  0  0  0  0  0  0  0  0  0
  -11.0718  -22.5889   31.7601 N   0  0  0  0  0  0  0  0  0  0  0  0
  -11.2276  -22.4790   29.9666 C   0  0  0  0  0  0  0  0  0  0  0  0
  -12.0313  -21.6793   29.3049 N   0  0  0  0  0  0  0  0  0  0  0  0
  -12.0656  -21.8950   27.9566 C   0  0  0  0  0  0  0  0  0  0  0  0
  -11.6127  -22.9172   27.1849 C   0  0  0  0  0  0  0  0  0  0  0  0
  -10.7194  -23.6216   27.8559 C   0  0  0  0  0  0  0  0  0  0  0  0
  -10.4993  -23.3383   29.1466 N   0  0  0  0  0  0  0  0  0  0  0  0
   -9.9199  -21.3928   32.2519 C   0  0  0  0  0  0  0  0  0  0  0  0
  -10.7795  -20.5885   31.2173 C   0  0  0  0  0  0  0  0  0  0  0  0
   -9.0536  -20.4530   33.8956 C   0  0  0  0  0  0  0  0  0  0  0  0
   -9.3849  -19.1144   34.4217 N   0  0  0  0  0  0  0  0  0  0  0  0
  -10.0025  -18.7161   35.6421 C   0  0  0  0  0  0  0  0  0  0  0  0
  -10.4830  -19.3661   36.5195 O   0  0  0  0  0  0  0  0  0  0  0  0
  -10.0117  -17.2659   35.8308 C   0  0  0  0  0  0  0  0  0  0  0  0
   -9.6114  -16.1840   35.0647 C   0  0  0  0  0  0  0  0  0  0  0  0
   -9.8477  -14.9895   35.8028 C   0  0  0  0  0  0  0  0  0  0  0  0
   -9.6377  -13.6214   35.5449 C   0  0  0  0  0  0  0  0  0  0  0  0
   -9.9943  -12.6798   36.5174 C   0  0  0  0  0  0  0  0  0  0  0  0
  -10.5547  -13.0849   37.7274 C   0  0  0  0  0  0  0  0  0  0  0  0
  -10.7769  -14.4379   38.0020 C   0  0  0  0  0  0  0  0  0  0  0  0
  -10.4116  -15.3639   37.0186 C   0  0  0  0  0  0  0  0  0  0  0  0
  -10.5182  -16.7314   37.0012 N   0  0  0  0  0  0  0  0  0  0  0  0
   -9.5653  -25.3085   33.1160 H   0  0  0  0  0  0  0  0  0  0  0  0
   -8.7172  -25.0655   31.7593 H   0  0  0  0  0  0  0  0  0  0  0  0
   -8.5571  -23.8924   33.0952 H   0  0  0  0  0  0  0  0  0  0  0  0
  -10.3512  -24.0922   31.1547 H   0  0  0  0  0  0  0  0  0  0  0  0
  -11.1349  -24.4553   32.6386 H   0  0  0  0  0  0  0  0  0  0  0  0
  -12.5036  -21.1159   27.4117 H   0  0  0  0  0  0  0  0  0  0  0  0
  -11.8434  -23.0296   26.1418 H   0  0  0  0  0  0  0  0  0  0  0  0
  -10.1400  -24.4212   27.4205 H   0  0  0  0  0  0  0  0  0  0  0  0
   -9.1465  -22.0265   32.2741 H   0  0  0  0  0  0  0  0  0  0  0  0
  -10.5451  -20.5651   30.1586 H   0  0  0  0  0  0  0  0  0  0  0  0
  -11.8904  -20.7681   31.1844 H   0  0  0  0  0  0  0  0  0  0  0  0
  -10.6502  -19.7456   31.8724 H   0  0  0  0  0  0  0  0  0  0  0  0
   -8.7358  -21.0496   34.7742 H   0  0  0  0  0  0  0  0  0  0  0  0
   -7.9379  -20.3438   33.7518 H   0  0  0  0  0  0  0  0  0  0  0  0
   -9.1678  -18.2967   33.8839 H   0  0  0  0  0  0  0  0  0  0  0  0
   -9.1963  -16.2170   34.0681 H   0  0  0  0  0  0  0  0  0  0  0  0
   -9.2075  -13.2983   34.6020 H   0  0  0  0  0  0  0  0  0  0  0  0
   -9.8351  -11.6222   36.3229 H   0  0  0  0  0  0  0  0  0  0  0  0
  -10.8284  -12.3377   38.4687 H   0  0  0  0  0  0  0  0  0  0  0  0
  -11.2201  -14.7517   38.9411 H   0  0  0  0  0  0  0  0  0  0  0  0
  -10.9088  -17.3057   37.7381 H   0  0  0  0  0  0  0  0  0  0  0  0
  1  2  1  0
  2  3  1  0
  3  4  1  0
  4  5  2  0
  5  6  1  0
  6  7  2  0
  7  8  1  0
  8  9  2  0
  3 10  1  0
 10 11  1  0
 10 12  1  0
 12 13  1  0
 13 14  1  0
 14 15  2  0
 14 16  1  0
 16 17  2  0
 17 18  1  0
 18 19  2  0
 19 20  1  0
 20 21  2  0
 21 22  1  0
 22 23  2  0
 23 24  1  0
  9  4  1  0
 24 16  1  0
 23 18  1  0
  1 25  1  0
  1 26  1  0
  1 27  1  0
  2 28  1  0
  2 29  1  0
  6 30  1  0
  7 31  1  0
  8 32  1  0
 10 33  1  0
 11 34  1  0
 11 35  1  0
 11 36  1  0
 12 37  1  0
 12 38  1  0
 13 39  1  0
 17 40  1  0
 19 41  1  0
 20 42  1  0
 21 43  1  0
 22 44  1  0
 24 45  1  0
M  END
>  <Energy>  (1281) 
310.15154092507936

>  <compound_id>  (1281) 
75242

>  <target_id>  (1281) 
1

>  <reference_id>  (1281) 
40

>  <inspiration_ids>  (1281) 
[40, 54]

>  <energy_score>  (1281) 
334.41437860529356

>  <distance_score>  (1281) 
1.5081624663729623

>  <path>  (1281) 
/opt/xchem-fragalysis-2/maxwin/BulkDock/SCRATCH/511017/C75242-P40/C75242-P40.minimised.mol

>  <scratch_subdir>  (1281) 
/opt/xchem-fragalysis-2/maxwin/BulkDock/SCRATCH/511017/C75242-P40

>  <fragmenstein_runtime>  (1281) 
12.178573846817017

>  <fragmenstein_outcome>  (1281) 
too moved

>  <fragmenstein_mode>  (1281) 
expansion

>  <fragmenstein_error>  (1281) 


$$$$
C75242-P54
     RDKit          3D

 45 47  0  0  0  0  0  0  0  0999 V2000
   -8.5820  -23.4599   33.1216 C   0  0  0  0  0  0  0  0  0  0  0  0
   -9.4285  -23.8287   31.9168 C   0  0  0  0  0  0  0  0  0  0  0  0
   -9.9449  -22.6804   31.1415 N   0  0  0  0  0  0  0  0  0  0  0  0
  -10.4492  -23.2056   29.9168 C   0  0  0  0  0  0  0  0  0  0  0  0
  -10.4107  -22.4022   28.8401 N   0  0  0  0  0  0  0  0  0  0  0  0
  -10.9932  -22.8394   27.7080 C   0  0  0  0  0  0  0  0  0  0  0  0
  -11.5703  -24.0742   27.5810 C   0  0  0  0  0  0  0  0  0  0  0  0
  -11.5273  -24.8495   28.7089 C   0  0  0  0  0  0  0  0  0  0  0  0
  -10.9901  -24.4412   29.8747 N   0  0  0  0  0  0  0  0  0  0  0  0
  -11.0035  -21.8329   31.7914 C   0  0  0  0  0  0  0  0  0  0  0  0
  -11.7704  -20.9146   30.8060 C   0  0  0  0  0  0  0  0  0  0  0  0
  -10.4533  -20.9764   32.9664 C   0  0  0  0  0  0  0  0  0  0  0  0
  -11.3036  -19.8690   33.3293 N   0  0  0  0  0  0  0  0  0  0  0  0
  -12.6014  -19.8357   34.1394 C   0  0  0  0  0  0  0  0  0  0  0  0
  -13.1551  -20.6829   34.7104 O   0  0  0  0  0  0  0  0  0  0  0  0
  -13.1776  -18.4993   34.1183 C   0  0  0  0  0  0  0  0  0  0  0  0
  -12.5991  -17.2422   34.1654 C   0  0  0  0  0  0  0  0  0  0  0  0
  -13.6379  -16.2819   34.3296 C   0  0  0  0  0  0  0  0  0  0  0  0
  -13.6567  -14.8823   34.4809 C   0  0  0  0  0  0  0  0  0  0  0  0
  -14.8858  -14.2288   34.6248 C   0  0  0  0  0  0  0  0  0  0  0  0
  -16.0791  -14.9496   34.6210 C   0  0  0  0  0  0  0  0  0  0  0  0
  -16.0832  -16.3408   34.4756 C   0  0  0  0  0  0  0  0  0  0  0  0
  -14.8464  -16.9782   34.3307 C   0  0  0  0  0  0  0  0  0  0  0  0
  -14.5399  -18.3138   34.2153 N   0  0  0  0  0  0  0  0  0  0  0  0
   -7.9587  -24.3145   33.4053 H   0  0  0  0  0  0  0  0  0  0  0  0
   -7.9243  -22.6107   32.9169 H   0  0  0  0  0  0  0  0  0  0  0  0
   -9.1963  -23.2363   33.9958 H   0  0  0  0  0  0  0  0  0  0  0  0
  -10.2282  -24.4959   32.2436 H   0  0  0  0  0  0  0  0  0  0  0  0
   -8.7841  -24.4236   31.2602 H   0  0  0  0  0  0  0  0  0  0  0  0
  -10.9906  -22.1357   26.8823 H   0  0  0  0  0  0  0  0  0  0  0  0
  -12.0268  -24.4079   26.6611 H   0  0  0  0  0  0  0  0  0  0  0  0
  -11.9477  -25.8505   28.7180 H   0  0  0  0  0  0  0  0  0  0  0  0
  -11.7259  -22.5191   32.2112 H   0  0  0  0  0  0  0  0  0  0  0  0
  -12.5169  -20.2930   31.3076 H   0  0  0  0  0  0  0  0  0  0  0  0
  -11.0932  -20.2465   30.2644 H   0  0  0  0  0  0  0  0  0  0  0  0
  -12.3554  -21.4916   30.0832 H   0  0  0  0  0  0  0  0  0  0  0  0
   -9.4573  -20.5811   32.7642 H   0  0  0  0  0  0  0  0  0  0  0  0
  -10.3977  -21.5933   33.8654 H   0  0  0  0  0  0  0  0  0  0  0  0
  -11.0659  -18.9315   33.0349 H   0  0  0  0  0  0  0  0  0  0  0  0
  -11.5386  -17.0254   34.1604 H   0  0  0  0  0  0  0  0  0  0  0  0
  -12.7284  -14.3161   34.4798 H   0  0  0  0  0  0  0  0  0  0  0  0
  -14.9056  -13.1482   34.7473 H   0  0  0  0  0  0  0  0  0  0  0  0
  -17.0231  -14.4235   34.7482 H   0  0  0  0  0  0  0  0  0  0  0  0
  -17.0125  -16.9014   34.4970 H   0  0  0  0  0  0  0  0  0  0  0  0
  -15.1940  -19.0848   34.2790 H   0  0  0  0  0  0  0  0  0  0  0  0
  1  2  1  0
  2  3  1  0
  3  4  1  0
  4  5  2  0
  5  6  1  0
  6  7  2  0
  7  8  1  0
  8  9  2  0
  3 10  1  0
 10 11  1  0
 10 12  1  0
 12 13  1  0
 13 14  1  0
 14 15  2  0
 14 16  1  0
 16 17  2  0
 17 18  1  0
 18 19  2  0
 19 20  1  0
 20 21  2  0
 21 22  1  0
 22 23  2  0
 23 24  1  0
  9  4  1  0
 24 16  1  0
 23 18  1  0
  1 25  1  0
  1 26  1  0
  1 27  1  0
  2 28  1  0
  2 29  1  0
  6 30  1  0
  7 31  1  0
  8 32  1  0
 10 33  1  0
 11 34  1  0
 11 35  1  0
 11 36  1  0
 12 37  1  0
 12 38  1  0
 13 39  1  0
 17 40  1  0
 19 41  1  0
 20 42  1  0
 21 43  1  0
 22 44  1  0
 24 45  1  0
M  END
>  <Energy>  (1282) 
-40.108517445075371

>  <compound_id>  (1282) 
75242

>  <target_id>  (1282) 
1

>  <reference_id>  (1282) 
54

>  <inspiration_ids>  (1282) 
[40, 54]

>  <energy_score>  (1282) 
-7.692350717627157

>  <distance_score>  (1282) 
0.7544098673945877

>  <path>  (1282) 
/opt/xchem-fragalysis-2/maxwin/BulkDock/SCRATCH/511017/C75242-P54/C75242-P54.minimised.mol

>  <scratch_subdir>  (1282) 
/opt/xchem-fragalysis-2/maxwin/BulkDock/SCRATCH/511017/C75242-P54

>  <fragmenstein_runtime>  (1282) 
9.815793991088867

>  <fragmenstein_outcome>  (1282) 
acceptable

>  <fragmenstein_mode>  (1282) 
expansion

>  <fragmenstein_error>  (1282) 


$$$$
C75243-P40
     RDKit          3D

 48 50  0  0  0  0  0  0  0  0999 V2000
   -9.1289  -24.4848   32.6937 C   0  0  0  0  0  0  0  0  0  0  0  0
   -9.0267  -24.5970   31.2972 C   0  0  0  0  0  0  0  0  0  0  0  0
  -10.3575  -23.6922   30.2342 N   0  0  0  0  0  0  0  0  0  0  0  0
  -10.4440  -23.5924   28.7515 C   0  0  0  0  0  0  0  0  0  0  0  0
  -10.1391  -24.6275   27.9746 N   0  0  0  0  0  0  0  0  0  0  0  0
  -10.8586  -24.7667   26.8408 C   0  0  0  0  0  0  0  0  0  0  0  0
  -11.8023  -23.8672   26.4401 C   0  0  0  0  0  0  0  0  0  0  0  0
  -11.7826  -22.7113   27.1384 C   0  0  0  0  0  0  0  0  0  0  0  0
  -11.0785  -22.5460   28.2527 N   0  0  0  0  0  0  0  0  0  0  0  0
  -11.4532  -22.4751   31.0670 C   0  0  0  0  0  0  0  0  0  0  0  0
  -11.6508  -21.2349   30.3248 C   0  0  0  0  0  0  0  0  0  0  0  0
  -11.3606  -22.5388   32.9955 C   0  0  0  0  0  0  0  0  0  0  0  0
  -11.6660  -21.8498   35.2581 N   0  0  0  0  0  0  0  0  0  0  0  0
  -12.3355  -22.4088   36.2861 C   0  0  0  0  0  0  0  0  0  0  0  0
  -12.8710  -23.4110   36.3522 O   0  0  0  0  0  0  0  0  0  0  0  0
  -12.3889  -21.3844   37.4448 C   0  0  0  0  0  0  0  0  0  0  0  0
  -12.4496  -19.9862   37.4193 C   0  0  0  0  0  0  0  0  0  0  0  0
  -12.7939  -19.5023   38.7122 C   0  0  0  0  0  0  0  0  0  0  0  0
  -13.0366  -18.2256   39.2510 C   0  0  0  0  0  0  0  0  0  0  0  0
  -13.3402  -18.1069   40.6136 C   0  0  0  0  0  0  0  0  0  0  0  0
  -13.4194  -19.2352   41.4382 C   0  0  0  0  0  0  0  0  0  0  0  0
  -13.7111  -19.0781   42.9031 C   0  0  0  0  0  0  0  0  0  0  0  0
  -13.1758  -20.5124   40.9088 C   0  0  0  0  0  0  0  0  0  0  0  0
  -12.8774  -20.6087   39.5449 C   0  0  0  0  0  0  0  0  0  0  0  0
  -12.6133  -21.7060   38.7695 N   0  0  0  0  0  0  0  0  0  0  0  0
   -9.8239  -25.1908   33.0889 H   0  0  0  0  0  0  0  0  0  0  0  0
   -9.3053  -23.5033   32.9126 H   0  0  0  0  0  0  0  0  0  0  0  0
   -8.1572  -24.5513   33.1113 H   0  0  0  0  0  0  0  0  0  0  0  0
   -8.1905  -24.7793   30.5867 H   0  0  0  0  0  0  0  0  0  0  0  0
   -8.8953  -25.7278   31.3554 H   0  0  0  0  0  0  0  0  0  0  0  0
  -10.7068  -25.6970   26.3087 H   0  0  0  0  0  0  0  0  0  0  0  0
  -12.5031  -23.9940   25.6390 H   0  0  0  0  0  0  0  0  0  0  0  0
  -12.3562  -21.8589   26.8316 H   0  0  0  0  0  0  0  0  0  0  0  0
  -12.3793  -22.7925   30.6395 H   0  0  0  0  0  0  0  0  0  0  0  0
  -10.7550  -20.8108   29.9463 H   0  0  0  0  0  0  0  0  0  0  0  0
  -12.1919  -20.7184   31.0641 H   0  0  0  0  0  0  0  0  0  0  0  0
  -12.3740  -21.2524   29.5012 H   0  0  0  0  0  0  0  0  0  0  0  0
  -11.1089  -23.6621   32.7586 H   0  0  0  0  0  0  0  0  0  0  0  0
  -10.3339  -22.1766   32.5292 H   0  0  0  0  0  0  0  0  0  0  0  0
  -11.3721  -20.8584   35.5409 H   0  0  0  0  0  0  0  0  0  0  0  0
  -12.3676  -19.3537   36.5449 H   0  0  0  0  0  0  0  0  0  0  0  0
  -12.9866  -17.3403   38.6241 H   0  0  0  0  0  0  0  0  0  0  0  0
  -13.5202  -17.1162   41.0267 H   0  0  0  0  0  0  0  0  0  0  0  0
  -14.3628  -18.2162   43.0814 H   0  0  0  0  0  0  0  0  0  0  0  0
  -14.2264  -19.9609   43.2961 H   0  0  0  0  0  0  0  0  0  0  0  0
  -12.7776  -18.9374   43.4566 H   0  0  0  0  0  0  0  0  0  0  0  0
  -13.2159  -21.3993   41.5339 H   0  0  0  0  0  0  0  0  0  0  0  0
  -12.6096  -22.6660   39.0870 H   0  0  0  0  0  0  0  0  0  0  0  0
  1  2  1  0
  2  3  1  0
  3  4  1  0
  4  5  2  0
  5  6  1  0
  6  7  2  0
  7  8  1  0
  8  9  2  0
  3 10  1  0
 10 11  1  0
 10 12  1  0
 12 13  1  0
 13 14  1  0
 14 15  2  0
 14 16  1  0
 16 17  2  0
 17 18  1  0
 18 19  2  0
 19 20  1  0
 20 21  2  0
 21 22  1  0
 21 23  1  0
 23 24  2  0
 24 25  1  0
  9  4  1  0
 25 16  1  0
 24 18  1  0
  1 26  1  0
  1 27  1  0
  1 28  1  0
  2 29  1  0
  2 30  1  0
  6 31  1  0
  7 32  1  0
  8 33  1  0
 10 34  1  0
 11 35  1  0
 11 36  1  0
 11 37  1  0
 12 38  1  0
 12 39  1  0
 13 40  1  0
 17 41  1  0
 19 42  1  0
 20 43  1  0
 22 44  1  0
 22 45  1  0
 22 46  1  0
 23 47  1  0
 25 48  1  0
M  END
>  <Energy>  (1283) 
681.72705309977437

>  <compound_id>  (1283) 
75243

>  <target_id>  (1283) 
1

>  <reference_id>  (1283) 
40

>  <inspiration_ids>  (1283) 
[40, 54]

>  <energy_score>  (1283) 
697.639853179763

>  <distance_score>  (1283) 
1.4974597625956665

>  <path>  (1283) 
/opt/xchem-fragalysis-2/maxwin/BulkDock/SCRATCH/511017/C75243-P40/C75243-P40.minimised.mol

>  <scratch_subdir>  (1283) 
/opt/xchem-fragalysis-2/maxwin/BulkDock/SCRATCH/511017/C75243-P40

>  <fragmenstein_runtime>  (1283) 
14.400095701217651

>  <fragmenstein_outcome>  (1283) 
too moved

>  <fragmenstein_mode>  (1283) 
expansion

>  <fragmenstein_error>  (1283) 


$$$$
C75243-P54
     RDKit          3D

 48 50  0  0  0  0  0  0  0  0999 V2000
   -8.5848  -23.4820   33.1202 C   0  0  0  0  0  0  0  0  0  0  0  0
   -9.4294  -23.8405   31.9107 C   0  0  0  0  0  0  0  0  0  0  0  0
   -9.9438  -22.6863   31.1427 N   0  0  0  0  0  0  0  0  0  0  0  0
  -10.4525  -23.2027   29.9163 C   0  0  0  0  0  0  0  0  0  0  0  0
  -10.9885  -24.4401   29.8661 N   0  0  0  0  0  0  0  0  0  0  0  0
  -11.5280  -24.8416   28.6991 C   0  0  0  0  0  0  0  0  0  0  0  0
  -11.5772  -24.0580   27.5772 C   0  0  0  0  0  0  0  0  0  0  0  0
  -11.0044  -22.8220   27.7118 C   0  0  0  0  0  0  0  0  0  0  0  0
  -10.4203  -22.3910   28.8456 N   0  0  0  0  0  0  0  0  0  0  0  0
  -10.9951  -21.8367   31.8018 C   0  0  0  0  0  0  0  0  0  0  0  0
  -11.7695  -20.9165   30.8244 C   0  0  0  0  0  0  0  0  0  0  0  0
  -10.4298  -20.9830   32.9721 C   0  0  0  0  0  0  0  0  0  0  0  0
  -11.2682  -19.8702   33.3454 N   0  0  0  0  0  0  0  0  0  0  0  0
  -12.5728  -19.8323   34.1437 C   0  0  0  0  0  0  0  0  0  0  0  0
  -13.1433  -20.6809   34.6952 O   0  0  0  0  0  0  0  0  0  0  0  0
  -13.1419  -18.4934   34.1170 C   0  0  0  0  0  0  0  0  0  0  0  0
  -12.5538  -17.2410   34.1594 C   0  0  0  0  0  0  0  0  0  0  0  0
  -13.5851  -16.2726   34.3218 C   0  0  0  0  0  0  0  0  0  0  0  0
  -13.5944  -14.8731   34.4620 C   0  0  0  0  0  0  0  0  0  0  0  0
  -14.8193  -14.2091   34.6042 C   0  0  0  0  0  0  0  0  0  0  0  0
  -16.0277  -14.9157   34.6218 C   0  0  0  0  0  0  0  0  0  0  0  0
  -17.3279  -14.1756   34.7581 C   0  0  0  0  0  0  0  0  0  0  0  0
  -16.0312  -16.3121   34.4710 C   0  0  0  0  0  0  0  0  0  0  0  0
  -14.7982  -16.9592   34.3277 C   0  0  0  0  0  0  0  0  0  0  0  0
  -14.5026  -18.2976   34.2157 N   0  0  0  0  0  0  0  0  0  0  0  0
   -9.2011  -23.2648   33.9947 H   0  0  0  0  0  0  0  0  0  0  0  0
   -7.9254  -22.6322   32.9234 H   0  0  0  0  0  0  0  0  0  0  0  0
   -7.9632  -24.3395   33.3988 H   0  0  0  0  0  0  0  0  0  0  0  0
   -8.7842  -24.4305   31.2505 H   0  0  0  0  0  0  0  0  0  0  0  0
  -10.2302  -24.5097   32.2314 H   0  0  0  0  0  0  0  0  0  0  0  0
  -11.9448  -25.8441   28.7020 H   0  0  0  0  0  0  0  0  0  0  0  0
  -12.0353  -24.3864   26.6562 H   0  0  0  0  0  0  0  0  0  0  0  0
  -11.0072  -22.1119   26.8916 H   0  0  0  0  0  0  0  0  0  0  0  0
  -11.7150  -22.5212   32.2288 H   0  0  0  0  0  0  0  0  0  0  0  0
  -11.0967  -20.2470   30.2791 H   0  0  0  0  0  0  0  0  0  0  0  0
  -12.5119  -20.2959   31.3332 H   0  0  0  0  0  0  0  0  0  0  0  0
  -12.3601  -21.4920   30.1049 H   0  0  0  0  0  0  0  0  0  0  0  0
  -10.3721  -21.6012   33.8700 H   0  0  0  0  0  0  0  0  0  0  0  0
   -9.4323  -20.5949   32.7635 H   0  0  0  0  0  0  0  0  0  0  0  0
  -11.1008  -18.9635   32.9296 H   0  0  0  0  0  0  0  0  0  0  0  0
  -11.4916  -17.0340   34.1498 H   0  0  0  0  0  0  0  0  0  0  0  0
  -12.6628  -14.3126   34.4495 H   0  0  0  0  0  0  0  0  0  0  0  0
  -14.8167  -13.1256   34.7090 H   0  0  0  0  0  0  0  0  0  0  0  0
  -17.2030  -13.2760   35.3699 H   0  0  0  0  0  0  0  0  0  0  0  0
  -17.6964  -13.8843   33.7697 H   0  0  0  0  0  0  0  0  0  0  0  0
  -18.0833  -14.7987   35.2484 H   0  0  0  0  0  0  0  0  0  0  0  0
  -16.9589  -16.8769   34.4878 H   0  0  0  0  0  0  0  0  0  0  0  0
  -15.1621  -19.0635   34.2864 H   0  0  0  0  0  0  0  0  0  0  0  0
  1  2  1  0
  2  3  1  0
  3  4  1  0
  4  5  2  0
  5  6  1  0
  6  7  2  0
  7  8  1  0
  8  9  2  0
  3 10  1  0
 10 11  1  0
 10 12  1  0
 12 13  1  0
 13 14  1  0
 14 15  2  0
 14 16  1  0
 16 17  2  0
 17 18  1  0
 18 19  2  0
 19 20  1  0
 20 21  2  0
 21 22  1  0
 21 23  1  0
 23 24  2  0
 24 25  1  0
  9  4  1  0
 25 16  1  0
 24 18  1  0
  1 26  1  0
  1 27  1  0
  1 28  1  0
  2 29  1  0
  2 30  1  0
  6 31  1  0
  7 32  1  0
  8 33  1  0
 10 34  1  0
 11 35  1  0
 11 36  1  0
 11 37  1  0
 12 38  1  0
 12 39  1  0
 13 40  1  0
 17 41  1  0
 19 42  1  0
 20 43  1  0
 22 44  1  0
 22 45  1  0
 22 46  1  0
 23 47  1  0
 25 48  1  0
M  END
>  <Energy>  (1284) 
-38.529317060259849

>  <compound_id>  (1284) 
75243

>  <target_id>  (1284) 
1

>  <reference_id>  (1284) 
54

>  <inspiration_ids>  (1284) 
[40, 54]

>  <energy_score>  (1284) 
-16.788085153435496

>  <distance_score>  (1284) 
0.5514289378086183

>  <path>  (1284) 
/opt/xchem-fragalysis-2/maxwin/BulkDock/SCRATCH/511017/C75243-P54/C75243-P54.minimised.mol

>  <scratch_subdir>  (1284) 
/opt/xchem-fragalysis-2/maxwin/BulkDock/SCRATCH/511017/C75243-P54

>  <fragmenstein_runtime>  (1284) 
10.266671180725098

>  <fragmenstein_outcome>  (1284) 
acceptable

>  <fragmenstein_mode>  (1284) 
expansion

>  <fragmenstein_error>  (1284) 


$$$$
C75244-P40
     RDKit          3D

 45 47  0  0  0  0  0  0  0  0999 V2000
  -12.5493  -21.1920   30.3625 C   0  0  0  0  0  0  0  0  0  0  0  0
  -11.1648  -21.4358   30.7717 C   0  0  0  0  0  0  0  0  0  0  0  0
  -11.0359  -22.8643   31.3611 N   0  0  0  0  0  0  0  0  0  0  0  0
  -10.7796  -22.9778   29.4773 C   0  0  0  0  0  0  0  0  0  0  0  0
  -10.2138  -24.0225   28.8215 N   0  0  0  0  0  0  0  0  0  0  0  0
  -10.5329  -24.3567   27.5422 C   0  0  0  0  0  0  0  0  0  0  0  0
  -11.3947  -23.6675   26.7777 C   0  0  0  0  0  0  0  0  0  0  0  0
  -11.7402  -22.5043   27.3375 C   0  0  0  0  0  0  0  0  0  0  0  0
  -11.4241  -22.1742   28.5950 N   0  0  0  0  0  0  0  0  0  0  0  0
   -9.5208  -23.3481   32.6170 C   0  0  0  0  0  0  0  0  0  0  0  0
   -9.3160  -24.8246   32.7051 C   0  0  0  0  0  0  0  0  0  0  0  0
   -8.0264  -22.5431   33.9747 C   0  0  0  0  0  0  0  0  0  0  0  0
   -8.4517  -21.4144   35.0347 N   0  0  0  0  0  0  0  0  0  0  0  0
   -8.5414  -19.9640   34.9044 C   0  0  0  0  0  0  0  0  0  0  0  0
   -8.2322  -19.2447   34.0090 O   0  0  0  0  0  0  0  0  0  0  0  0
   -9.2439  -19.2268   36.0059 C   0  0  0  0  0  0  0  0  0  0  0  0
  -10.4082  -19.6998   36.6630 C   0  0  0  0  0  0  0  0  0  0  0  0
  -11.4454  -18.7418   36.7115 C   0  0  0  0  0  0  0  0  0  0  0  0
  -12.7862  -18.7773   37.1380 C   0  0  0  0  0  0  0  0  0  0  0  0
  -13.6315  -17.7413   36.7500 C   0  0  0  0  0  0  0  0  0  0  0  0
  -14.9171  -17.7692   37.1273 F   0  0  0  0  0  0  0  0  0  0  0  0
  -13.1847  -16.7144   35.9359 C   0  0  0  0  0  0  0  0  0  0  0  0
  -11.8518  -16.6807   35.5178 C   0  0  0  0  0  0  0  0  0  0  0  0
  -10.9780  -17.6851   35.9692 C   0  0  0  0  0  0  0  0  0  0  0  0
   -9.6064  -17.8793   35.7822 N   0  0  0  0  0  0  0  0  0  0  0  0
  -13.0779  -22.0426   30.0175 H   0  0  0  0  0  0  0  0  0  0  0  0
  -12.7218  -20.4144   29.6211 H   0  0  0  0  0  0  0  0  0  0  0  0
  -12.8678  -21.0185   31.3457 H   0  0  0  0  0  0  0  0  0  0  0  0
  -10.5717  -21.0697   29.9422 H   0  0  0  0  0  0  0  0  0  0  0  0
  -10.7455  -20.6543   31.3567 H   0  0  0  0  0  0  0  0  0  0  0  0
  -10.1557  -25.3002   27.1875 H   0  0  0  0  0  0  0  0  0  0  0  0
  -11.7245  -23.9538   25.8104 H   0  0  0  0  0  0  0  0  0  0  0  0
  -12.3000  -21.7741   26.7861 H   0  0  0  0  0  0  0  0  0  0  0  0
   -9.1105  -23.8244   31.7864 H   0  0  0  0  0  0  0  0  0  0  0  0
   -8.3659  -24.7485   33.1579 H   0  0  0  0  0  0  0  0  0  0  0  0
  -10.0575  -25.4079   33.1986 H   0  0  0  0  0  0  0  0  0  0  0  0
   -8.9185  -25.4405   31.8666 H   0  0  0  0  0  0  0  0  0  0  0  0
   -7.3836  -23.3072   34.4278 H   0  0  0  0  0  0  0  0  0  0  0  0
   -7.1777  -21.8542   33.6670 H   0  0  0  0  0  0  0  0  0  0  0  0
   -8.7249  -21.6789   35.9606 H   0  0  0  0  0  0  0  0  0  0  0  0
  -10.6892  -20.7212   36.8802 H   0  0  0  0  0  0  0  0  0  0  0  0
  -13.1827  -19.6171   37.6982 H   0  0  0  0  0  0  0  0  0  0  0  0
  -13.8737  -15.9405   35.6141 H   0  0  0  0  0  0  0  0  0  0  0  0
  -11.5051  -15.8923   34.8559 H   0  0  0  0  0  0  0  0  0  0  0  0
   -9.0945  -17.2853   35.1453 H   0  0  0  0  0  0  0  0  0  0  0  0
  1  2  1  0
  2  3  1  0
  3  4  1  0
  4  5  2  0
  5  6  1  0
  6  7  2  0
  7  8  1  0
  8  9  2  0
  3 10  1  0
 10 11  1  0
 10 12  1  0
 12 13  1  0
 13 14  1  0
 14 15  2  0
 14 16  1  0
 16 17  2  0
 17 18  1  0
 18 19  2  0
 19 20  1  0
 20 21  1  0
 20 22  2  0
 22 23  1  0
 23 24  2  0
 24 25  1  0
  9  4  1  0
 25 16  1  0
 24 18  1  0
  1 26  1  0
  1 27  1  0
  1 28  1  0
  2 29  1  0
  2 30  1  0
  6 31  1  0
  7 32  1  0
  8 33  1  0
 10 34  1  0
 11 35  1  0
 11 36  1  0
 11 37  1  0
 12 38  1  0
 12 39  1  0
 13 40  1  0
 17 41  1  0
 19 42  1  0
 22 43  1  0
 23 44  1  0
 25 45  1  0
M  END
>  <Energy>  (1285) 
450.98357334039855

>  <compound_id>  (1285) 
75244

>  <target_id>  (1285) 
1

>  <reference_id>  (1285) 
40

>  <inspiration_ids>  (1285) 
[40, 54]

>  <energy_score>  (1285) 
488.90279115531837

>  <distance_score>  (1285) 
1.5586806930743151

>  <path>  (1285) 
/opt/xchem-fragalysis-2/maxwin/BulkDock/SCRATCH/511017/C75244-P40/C75244-P40.minimised.mol

>  <scratch_subdir>  (1285) 
/opt/xchem-fragalysis-2/maxwin/BulkDock/SCRATCH/511017/C75244-P40

>  <fragmenstein_runtime>  (1285) 
11.744242906570435

>  <fragmenstein_outcome>  (1285) 
too moved

>  <fragmenstein_mode>  (1285) 
expansion

>  <fragmenstein_error>  (1285) 


$$$$
C75244-P54
     RDKit          3D

 45 47  0  0  0  0  0  0  0  0999 V2000
  -12.2392  -20.8593   30.8321 C   0  0  0  0  0  0  0  0  0  0  0  0
  -10.8156  -21.2682   30.9866 C   0  0  0  0  0  0  0  0  0  0  0  0
  -10.6591  -22.6600   31.4062 N   0  0  0  0  0  0  0  0  0  0  0  0
  -10.7682  -23.5024   30.2912 C   0  0  0  0  0  0  0  0  0  0  0  0
  -11.0769  -24.7954   30.4696 N   0  0  0  0  0  0  0  0  0  0  0  0
  -11.4018  -25.5102   29.3692 C   0  0  0  0  0  0  0  0  0  0  0  0
  -11.4260  -25.0078   28.0914 C   0  0  0  0  0  0  0  0  0  0  0  0
  -11.0696  -23.6964   27.9881 C   0  0  0  0  0  0  0  0  0  0  0  0
  -10.7378  -22.9551   29.0537 N   0  0  0  0  0  0  0  0  0  0  0  0
   -9.5397  -22.8215   32.3619 C   0  0  0  0  0  0  0  0  0  0  0  0
   -9.1483  -24.2505   32.7052 C   0  0  0  0  0  0  0  0  0  0  0  0
   -9.7321  -21.9590   33.6889 C   0  0  0  0  0  0  0  0  0  0  0  0
  -11.0469  -21.4010   34.0195 N   0  0  0  0  0  0  0  0  0  0  0  0
  -11.6027  -19.9689   33.8451 C   0  0  0  0  0  0  0  0  0  0  0  0
  -11.1274  -19.0295   33.3409 O   0  0  0  0  0  0  0  0  0  0  0  0
  -12.9902  -19.8050   34.3072 C   0  0  0  0  0  0  0  0  0  0  0  0
  -13.8538  -20.4523   35.1738 C   0  0  0  0  0  0  0  0  0  0  0  0
  -15.1246  -19.8018   35.1547 C   0  0  0  0  0  0  0  0  0  0  0  0
  -16.3508  -20.0272   35.8056 C   0  0  0  0  0  0  0  0  0  0  0  0
  -17.4045  -19.1482   35.5588 C   0  0  0  0  0  0  0  0  0  0  0  0
  -18.5831  -19.3531   36.1640 F   0  0  0  0  0  0  0  0  0  0  0  0
  -17.2662  -18.0600   34.7040 C   0  0  0  0  0  0  0  0  0  0  0  0
  -16.0519  -17.8122   34.0584 C   0  0  0  0  0  0  0  0  0  0  0  0
  -15.0046  -18.7073   34.3061 C   0  0  0  0  0  0  0  0  0  0  0  0
  -13.7136  -18.7193   33.8500 N   0  0  0  0  0  0  0  0  0  0  0  0
  -12.2620  -19.8685   30.3751 H   0  0  0  0  0  0  0  0  0  0  0  0
  -12.8105  -21.5401   30.1965 H   0  0  0  0  0  0  0  0  0  0  0  0
  -12.7385  -20.7697   31.7816 H   0  0  0  0  0  0  0  0  0  0  0  0
  -10.2998  -21.0428   30.0497 H   0  0  0  0  0  0  0  0  0  0  0  0
  -10.3750  -20.5892   31.7068 H   0  0  0  0  0  0  0  0  0  0  0  0
  -11.6580  -26.5483   29.5621 H   0  0  0  0  0  0  0  0  0  0  0  0
  -11.6978  -25.6078   27.2358 H   0  0  0  0  0  0  0  0  0  0  0  0
  -11.0431  -23.1807   27.0335 H   0  0  0  0  0  0  0  0  0  0  0  0
   -8.6426  -22.4122   31.8752 H   0  0  0  0  0  0  0  0  0  0  0  0
   -8.8339  -24.7853   31.8085 H   0  0  0  0  0  0  0  0  0  0  0  0
   -9.9501  -24.8168   33.1637 H   0  0  0  0  0  0  0  0  0  0  0  0
   -8.2980  -24.2639   33.3960 H   0  0  0  0  0  0  0  0  0  0  0  0
   -9.3953  -22.5190   34.5677 H   0  0  0  0  0  0  0  0  0  0  0  0
   -9.0647  -21.0971   33.5850 H   0  0  0  0  0  0  0  0  0  0  0  0
  -11.6849  -21.9428   34.5738 H   0  0  0  0  0  0  0  0  0  0  0  0
  -13.6195  -21.2910   35.8089 H   0  0  0  0  0  0  0  0  0  0  0  0
  -16.4805  -20.8603   36.4874 H   0  0  0  0  0  0  0  0  0  0  0  0
  -18.1126  -17.3975   34.5519 H   0  0  0  0  0  0  0  0  0  0  0  0
  -15.9274  -16.9569   33.4041 H   0  0  0  0  0  0  0  0  0  0  0  0
  -13.2899  -18.0271   33.2579 H   0  0  0  0  0  0  0  0  0  0  0  0
  1  2  1  0
  2  3  1  0
  3  4  1  0
  4  5  2  0
  5  6  1  0
  6  7  2  0
  7  8  1  0
  8  9  2  0
  3 10  1  0
 10 11  1  0
 10 12  1  0
 12 13  1  0
 13 14  1  0
 14 15  2  0
 14 16  1  0
 16 17  2  0
 17 18  1  0
 18 19  2  0
 19 20  1  0
 20 21  1  0
 20 22  2  0
 22 23  1  0
 23 24  2  0
 24 25  1  0
  9  4  1  0
 25 16  1  0
 24 18  1  0
  1 26  1  0
  1 27  1  0
  1 28  1  0
  2 29  1  0
  2 30  1  0
  6 31  1  0
  7 32  1  0
  8 33  1  0
 10 34  1  0
 11 35  1  0
 11 36  1  0
 11 37  1  0
 12 38  1  0
 12 39  1  0
 13 40  1  0
 17 41  1  0
 19 42  1  0
 22 43  1  0
 23 44  1  0
 25 45  1  0
M  END
>  <Energy>  (1286) 
-36.226784290201394

>  <compound_id>  (1286) 
75244

>  <target_id>  (1286) 
1

>  <reference_id>  (1286) 
54

>  <inspiration_ids>  (1286) 
[40, 54]

>  <energy_score>  (1286) 
0.20983655924247557

>  <distance_score>  (1286) 
1.577069575381833

>  <path>  (1286) 
/opt/xchem-fragalysis-2/maxwin/BulkDock/SCRATCH/511017/C75244-P54/C75244-P54.minimised.mol

>  <scratch_subdir>  (1286) 
/opt/xchem-fragalysis-2/maxwin/BulkDock/SCRATCH/511017/C75244-P54

>  <fragmenstein_runtime>  (1286) 
6.957137584686279

>  <fragmenstein_outcome>  (1286) 
too moved

>  <fragmenstein_mode>  (1286) 
expansion

>  <fragmenstein_error>  (1286) 


$$$$
C75245-P40
     RDKit          3D

 42 44  0  0  0  0  0  0  0  0999 V2000
    0.6824   -7.7379   28.8598 C   0  0  0  0  0  0  0  0  0  0  0  0
   -0.0968   -8.6916   29.5991 N   0  0  0  0  0  0  0  0  0  0  0  0
   -0.6134   -9.9044   29.2494 C   0  0  0  0  0  0  0  0  0  0  0  0
   -1.4160  -10.6959   30.0910 C   0  0  0  0  0  0  0  0  0  0  0  0
   -2.5534  -12.1856   29.3706 C   0  0  0  0  0  0  0  0  0  0  0  0
   -2.7311  -14.2971   29.4765 C   0  0  0  0  0  0  0  0  0  0  0  0
   -3.9992  -15.5601   30.1651 O   0  0  0  0  0  0  0  0  0  0  0  0
   -5.5010  -15.8850   29.9485 C   0  0  0  0  0  0  0  0  0  0  0  0
   -6.1848  -15.0280   30.5330 O   0  0  0  0  0  0  0  0  0  0  0  0
   -6.4660  -17.3412   28.7650 C   0  0  0  0  0  0  0  0  0  0  0  0
   -8.2968  -18.3199   28.3642 C   0  0  0  0  0  0  0  0  0  0  0  0
   -9.3759  -19.9889   28.3041 C   0  0  0  0  0  0  0  0  0  0  0  0
  -10.0658  -21.1431   27.7360 C   0  0  0  0  0  0  0  0  0  0  0  0
  -10.3779  -22.4952   28.0515 N   0  0  0  0  0  0  0  0  0  0  0  0
  -11.4820  -22.5226   28.6742 C   0  0  0  0  0  0  0  0  0  0  0  0
  -11.6514  -21.5958   29.5501 N   0  0  0  0  0  0  0  0  0  0  0  0
  -10.6628  -20.5898   29.4362 C   0  0  0  0  0  0  0  0  0  0  0  0
   -1.3313   -9.3972   31.2801 C   0  0  0  0  0  0  0  0  0  0  0  0
   -1.9651   -8.8885   32.4454 C   0  0  0  0  0  0  0  0  0  0  0  0
   -1.5471   -7.7762   33.2329 C   0  0  0  0  0  0  0  0  0  0  0  0
   -0.6268   -6.8904   32.7780 C   0  0  0  0  0  0  0  0  0  0  0  0
   -0.1446   -7.1371   31.5266 C   0  0  0  0  0  0  0  0  0  0  0  0
   -0.4910   -8.3429   30.8403 C   0  0  0  0  0  0  0  0  0  0  0  0
    0.1003   -6.8464   28.7365 H   0  0  0  0  0  0  0  0  0  0  0  0
    1.5318   -7.3816   29.4273 H   0  0  0  0  0  0  0  0  0  0  0  0
    1.0927   -8.1520   27.9609 H   0  0  0  0  0  0  0  0  0  0  0  0
   -0.5754  -10.2013   28.2671 H   0  0  0  0  0  0  0  0  0  0  0  0
   -2.5427  -11.9345   28.3041 H   0  0  0  0  0  0  0  0  0  0  0  0
   -3.5500  -11.8103   29.4932 H   0  0  0  0  0  0  0  0  0  0  0  0
   -2.3843  -14.7887   28.5572 H   0  0  0  0  0  0  0  0  0  0  0  0
   -3.6184  -13.8266   29.4907 H   0  0  0  0  0  0  0  0  0  0  0  0
   -6.9931  -16.9851   27.8881 H   0  0  0  0  0  0  0  0  0  0  0  0
   -6.9078  -16.2948   28.6335 H   0  0  0  0  0  0  0  0  0  0  0  0
   -8.7501  -17.7506   27.5400 H   0  0  0  0  0  0  0  0  0  0  0  0
   -8.7673  -17.8217   29.0960 H   0  0  0  0  0  0  0  0  0  0  0  0
  -10.7515  -21.0610   26.8625 H   0  0  0  0  0  0  0  0  0  0  0  0
  -12.1364  -23.3305   28.4616 H   0  0  0  0  0  0  0  0  0  0  0  0
  -10.9098  -20.1279   30.3642 H   0  0  0  0  0  0  0  0  0  0  0  0
   -2.7882   -9.3464   32.9283 H   0  0  0  0  0  0  0  0  0  0  0  0
   -1.9972   -7.6247   34.2121 H   0  0  0  0  0  0  0  0  0  0  0  0
   -0.3419   -6.0156   33.3505 H   0  0  0  0  0  0  0  0  0  0  0  0
    0.5278   -6.4028   31.0923 H   0  0  0  0  0  0  0  0  0  0  0  0
  1  2  1  0
  2  3  1  0
  3  4  2  0
  4  5  1  0
  5  6  1  0
  6  7  1  0
  7  8  1  0
  8  9  2  0
  8 10  1  0
 10 11  1  0
 11 12  1  0
 12 13  2  0
 13 14  1  0
 14 15  2  0
 15 16  1  0
 16 17  2  0
  4 18  1  0
 18 19  2  0
 19 20  1  0
 20 21  2  0
 21 22  1  0
 22 23  2  0
 23  2  1  0
 17 12  1  0
 23 18  1  0
  1 24  1  0
  1 25  1  0
  1 26  1  0
  3 27  1  0
  5 28  1  0
  5 29  1  0
  6 30  1  0
  6 31  1  0
 10 32  1  0
 10 33  1  0
 11 34  1  0
 11 35  1  0
 13 36  1  0
 15 37  1  0
 17 38  1  0
 19 39  1  0
 20 40  1  0
 21 41  1  0
 22 42  1  0
M  END
>  <Energy>  (1287) 
1061.1166334578068

>  <compound_id>  (1287) 
75245

>  <target_id>  (1287) 
1

>  <reference_id>  (1287) 
40

>  <inspiration_ids>  (1287) 
[40, 54]

>  <energy_score>  (1287) 
1029.179962010522

>  <distance_score>  (1287) 
3.940325449837508

>  <path>  (1287) 
/opt/xchem-fragalysis-2/maxwin/BulkDock/SCRATCH/511017/C75245-P40/C75245-P40.minimised.mol

>  <scratch_subdir>  (1287) 
/opt/xchem-fragalysis-2/maxwin/BulkDock/SCRATCH/511017/C75245-P40

>  <fragmenstein_runtime>  (1287) 
15.992158651351929

>  <fragmenstein_outcome>  (1287) 
too moved

>  <fragmenstein_mode>  (1287) 
expansion

>  <fragmenstein_error>  (1287) 


$$$$
C75245-P54
     RDKit          3D

 42 44  0  0  0  0  0  0  0  0999 V2000
   -1.4176   -5.5784   25.3529 C   0  0  0  0  0  0  0  0  0  0  0  0
   -1.5522   -6.4663   26.5266 N   0  0  0  0  0  0  0  0  0  0  0  0
   -1.7898   -7.8861   26.4297 C   0  0  0  0  0  0  0  0  0  0  0  0
   -2.6865   -8.6648   27.4033 C   0  0  0  0  0  0  0  0  0  0  0  0
   -3.4715  -10.5480   27.2017 C   0  0  0  0  0  0  0  0  0  0  0  0
   -3.1029  -12.6801   27.2560 C   0  0  0  0  0  0  0  0  0  0  0  0
   -3.7215  -14.5444   26.4966 O   0  0  0  0  0  0  0  0  0  0  0  0
   -5.0842  -15.9655   26.6534 C   0  0  0  0  0  0  0  0  0  0  0  0
   -6.0684  -15.4923   27.4223 O   0  0  0  0  0  0  0  0  0  0  0  0
   -5.4955  -17.9765   26.1416 C   0  0  0  0  0  0  0  0  0  0  0  0
   -5.9129  -19.6216   27.2740 C   0  0  0  0  0  0  0  0  0  0  0  0
   -7.0152  -20.9057   27.9547 C   0  0  0  0  0  0  0  0  0  0  0  0
   -6.5805  -21.8736   28.8892 C   0  0  0  0  0  0  0  0  0  0  0  0
   -7.3843  -22.9044   29.4782 N   0  0  0  0  0  0  0  0  0  0  0  0
   -8.6574  -23.1294   29.1603 C   0  0  0  0  0  0  0  0  0  0  0  0
   -9.2888  -22.3035   28.3772 N   0  0  0  0  0  0  0  0  0  0  0  0
   -8.4888  -21.2313   27.9776 C   0  0  0  0  0  0  0  0  0  0  0  0
   -2.7773   -7.1001   28.3463 C   0  0  0  0  0  0  0  0  0  0  0  0
   -3.0024   -6.5748   29.6796 C   0  0  0  0  0  0  0  0  0  0  0  0
   -3.1060   -5.2384   30.1342 C   0  0  0  0  0  0  0  0  0  0  0  0
   -2.7315   -4.2253   29.3037 C   0  0  0  0  0  0  0  0  0  0  0  0
   -2.1761   -4.5757   28.0934 C   0  0  0  0  0  0  0  0  0  0  0  0
   -2.1406   -5.9398   27.6826 C   0  0  0  0  0  0  0  0  0  0  0  0
   -2.3996   -5.2163   25.0446 H   0  0  0  0  0  0  0  0  0  0  0  0
   -0.9193   -4.6489   25.6322 H   0  0  0  0  0  0  0  0  0  0  0  0
   -0.9393   -6.1169   24.5322 H   0  0  0  0  0  0  0  0  0  0  0  0
   -1.3803   -8.1744   25.4880 H   0  0  0  0  0  0  0  0  0  0  0  0
   -3.8339  -10.2296   26.2075 H   0  0  0  0  0  0  0  0  0  0  0  0
   -4.4726  -10.4080   27.6606 H   0  0  0  0  0  0  0  0  0  0  0  0
   -2.0991  -12.6833   26.7681 H   0  0  0  0  0  0  0  0  0  0  0  0
   -3.2980  -12.9067   28.3023 H   0  0  0  0  0  0  0  0  0  0  0  0
   -5.0080  -18.4007   25.2321 H   0  0  0  0  0  0  0  0  0  0  0  0
   -6.4627  -18.1006   25.7803 H   0  0  0  0  0  0  0  0  0  0  0  0
   -6.9474  -19.3020   27.0954 H   0  0  0  0  0  0  0  0  0  0  0  0
   -5.2830  -20.3631   26.7730 H   0  0  0  0  0  0  0  0  0  0  0  0
   -5.5466  -22.0416   29.1277 H   0  0  0  0  0  0  0  0  0  0  0  0
   -9.1636  -23.9834   29.5816 H   0  0  0  0  0  0  0  0  0  0  0  0
   -9.2196  -20.3827   28.0647 H   0  0  0  0  0  0  0  0  0  0  0  0
   -2.6436   -7.1702   30.5209 H   0  0  0  0  0  0  0  0  0  0  0  0
   -3.3134   -5.0382   31.1845 H   0  0  0  0  0  0  0  0  0  0  0  0
   -2.7232   -3.1909   29.6339 H   0  0  0  0  0  0  0  0  0  0  0  0
   -1.7129   -3.8006   27.4871 H   0  0  0  0  0  0  0  0  0  0  0  0
  1  2  1  0
  2  3  1  0
  3  4  2  0
  4  5  1  0
  5  6  1  0
  6  7  1  0
  7  8  1  0
  8  9  2  0
  8 10  1  0
 10 11  1  0
 11 12  1  0
 12 13  2  0
 13 14  1  0
 14 15  2  0
 15 16  1  0
 16 17  2  0
  4 18  1  0
 18 19  2  0
 19 20  1  0
 20 21  2  0
 21 22  1  0
 22 23  2  0
 23  2  1  0
 17 12  1  0
 23 18  1  0
  1 24  1  0
  1 25  1  0
  1 26  1  0
  3 27  1  0
  5 28  1  0
  5 29  1  0
  6 30  1  0
  6 31  1  0
 10 32  1  0
 10 33  1  0
 11 34  1  0
 11 35  1  0
 13 36  1  0
 15 37  1  0
 17 38  1  0
 19 39  1  0
 20 40  1  0
 21 41  1  0
 22 42  1  0
M  END
>  <Energy>  (1288) 
1022.880920206528

>  <compound_id>  (1288) 
75245

>  <target_id>  (1288) 
1

>  <reference_id>  (1288) 
54

>  <inspiration_ids>  (1288) 
[40, 54]

>  <energy_score>  (1288) 
990.9442487592592

>  <distance_score>  (1288) 
4.001702525814532

>  <path>  (1288) 
/opt/xchem-fragalysis-2/maxwin/BulkDock/SCRATCH/511017/C75245-P54/C75245-P54.minimised.mol

>  <scratch_subdir>  (1288) 
/opt/xchem-fragalysis-2/maxwin/BulkDock/SCRATCH/511017/C75245-P54

>  <fragmenstein_runtime>  (1288) 
9.458857774734497

>  <fragmenstein_outcome>  (1288) 
too moved

>  <fragmenstein_mode>  (1288) 
expansion

>  <fragmenstein_error>  (1288) 


$$$$
C75246-P40
     RDKit          3D

 35 37  0  0  0  0  0  0  0  0999 V2000
   -2.5148   -8.5471   33.5388 C   0  0  0  0  0  0  0  0  0  0  0  0
   -2.9343   -8.5495   32.1234 N   0  0  0  0  0  0  0  0  0  0  0  0
   -1.9196   -7.8376   31.4133 C   0  0  0  0  0  0  0  0  0  0  0  0
   -1.0469   -8.7962   30.9764 C   0  0  0  0  0  0  0  0  0  0  0  0
   -1.9042   -9.9598   30.8688 C   0  0  0  0  0  0  0  0  0  0  0  0
   -2.0324  -11.1618   29.6568 C   0  0  0  0  0  0  0  0  0  0  0  0
   -3.4984  -12.0101   29.0867 C   0  0  0  0  0  0  0  0  0  0  0  0
   -5.2827  -12.0747   29.3550 C   0  0  0  0  0  0  0  0  0  0  0  0
   -6.4055  -13.8714   29.4167 C   0  0  0  0  0  0  0  0  0  0  0  0
   -7.7417  -15.0678   28.3284 N   0  0  0  0  0  0  0  0  0  0  0  0
   -8.4228  -17.3519   28.2014 S   0  0  0  0  0  0  0  0  0  0  0  0
   -7.0070  -17.6224   28.2325 O   0  0  0  0  0  0  0  0  0  0  0  0
   -9.2295  -16.9481   27.0432 O   0  0  0  0  0  0  0  0  0  0  0  0
   -9.1842  -19.6337   28.3294 C   0  0  0  0  0  0  0  0  0  0  0  0
  -10.5461  -20.4477   29.3611 C   0  0  0  0  0  0  0  0  0  0  0  0
  -11.4306  -21.5276   29.5862 N   0  0  0  0  0  0  0  0  0  0  0  0
  -11.3810  -22.3273   28.6035 C   0  0  0  0  0  0  0  0  0  0  0  0
  -10.4143  -22.1263   27.7870 N   0  0  0  0  0  0  0  0  0  0  0  0
   -9.4493  -20.7883   27.6777 C   0  0  0  0  0  0  0  0  0  0  0  0
   -5.2115  -10.9569   31.0179 C   0  0  0  0  0  0  0  0  0  0  0  0
   -3.6428   -9.6272   31.2123 C   0  0  0  0  0  0  0  0  0  0  0  0
   -2.4091   -7.5296   33.9427 H   0  0  0  0  0  0  0  0  0  0  0  0
   -1.4457   -8.7532   33.5322 H   0  0  0  0  0  0  0  0  0  0  0  0
   -3.2025   -9.0997   34.1716 H   0  0  0  0  0  0  0  0  0  0  0  0
   -1.7301   -6.7949   31.6346 H   0  0  0  0  0  0  0  0  0  0  0  0
   -0.0969   -8.6056   30.5013 H   0  0  0  0  0  0  0  0  0  0  0  0
   -1.2897  -11.7224   30.2271 H   0  0  0  0  0  0  0  0  0  0  0  0
   -3.5990  -11.4016   29.9394 H   0  0  0  0  0  0  0  0  0  0  0  0
   -6.9307  -13.7724   30.3728 H   0  0  0  0  0  0  0  0  0  0  0  0
   -5.7992  -14.6262   29.9477 H   0  0  0  0  0  0  0  0  0  0  0  0
   -8.3859  -14.4854   27.7772 H   0  0  0  0  0  0  0  0  0  0  0  0
  -11.0448  -19.8378   30.0477 H   0  0  0  0  0  0  0  0  0  0  0  0
  -12.0137  -23.1669   28.4384 H   0  0  0  0  0  0  0  0  0  0  0  0
   -8.3132  -21.1929   27.5224 H   0  0  0  0  0  0  0  0  0  0  0  0
   -5.7281  -11.4033   31.9332 H   0  0  0  0  0  0  0  0  0  0  0  0
  1  2  1  0
  2  3  1  0
  3  4  2  0
  4  5  1  0
  5  6  2  0
  6  7  1  0
  7  8  2  0
  8  9  1  0
  9 10  1  0
 10 11  1  0
 11 12  2  0
 11 13  2  0
 11 14  1  0
 14 15  2  0
 15 16  1  0
 16 17  2  0
 17 18  1  0
 18 19  2  0
  8 20  1  0
 20 21  2  0
 21  2  1  0
 21  5  1  0
 19 14  1  0
  1 22  1  0
  1 23  1  0
  1 24  1  0
  3 25  1  0
  4 26  1  0
  6 27  1  0
  7 28  1  0
  9 29  1  0
  9 30  1  0
 10 31  1  0
 15 32  1  0
 17 33  1  0
 19 34  1  0
 20 35  1  0
M  END
>  <Energy>  (1289) 
1421.8179865940442

>  <compound_id>  (1289) 
75246

>  <target_id>  (1289) 
1

>  <reference_id>  (1289) 
40

>  <inspiration_ids>  (1289) 
[40, 54]

>  <energy_score>  (1289) 
1471.8079824177362

>  <distance_score>  (1289) 
5.849655615936836

>  <path>  (1289) 
/opt/xchem-fragalysis-2/maxwin/BulkDock/SCRATCH/511017/C75246-P40/C75246-P40.minimised.mol

>  <scratch_subdir>  (1289) 
/opt/xchem-fragalysis-2/maxwin/BulkDock/SCRATCH/511017/C75246-P40

>  <fragmenstein_runtime>  (1289) 
13.51560664176941

>  <fragmenstein_outcome>  (1289) 
too moved

>  <fragmenstein_mode>  (1289) 
expansion

>  <fragmenstein_error>  (1289) 


$$$$
C75246-P54
     RDKit          3D

 35 37  0  0  0  0  0  0  0  0999 V2000
   -7.1905   -4.7855   26.6322 C   0  0  0  0  0  0  0  0  0  0  0  0
   -6.5185   -4.7723   25.3587 N   0  0  0  0  0  0  0  0  0  0  0  0
   -5.4076   -4.0148   25.0847 C   0  0  0  0  0  0  0  0  0  0  0  0
   -5.1125   -4.1852   23.7539 C   0  0  0  0  0  0  0  0  0  0  0  0
   -6.0805   -5.0792   23.2130 C   0  0  0  0  0  0  0  0  0  0  0  0
   -6.3177   -5.5891   21.9280 C   0  0  0  0  0  0  0  0  0  0  0  0
   -7.3649   -6.5114   21.7203 C   0  0  0  0  0  0  0  0  0  0  0  0
   -8.1698   -6.9990   22.7664 C   0  0  0  0  0  0  0  0  0  0  0  0
   -9.2844   -8.0168   22.4288 C   0  0  0  0  0  0  0  0  0  0  0  0
   -9.2405   -9.3919   23.0335 N   0  0  0  0  0  0  0  0  0  0  0  0
   -9.1100  -10.7445   22.0179 S   0  0  0  0  0  0  0  0  0  0  0  0
   -7.7031  -10.8983   21.7166 O   0  0  0  0  0  0  0  0  0  0  0  0
  -10.0736  -10.5536   20.9528 O   0  0  0  0  0  0  0  0  0  0  0  0
   -9.6009  -12.2032   22.8761 C   0  0  0  0  0  0  0  0  0  0  0  0
  -10.4589  -13.1127   22.2892 C   0  0  0  0  0  0  0  0  0  0  0  0
  -10.6541  -14.3731   22.7500 N   0  0  0  0  0  0  0  0  0  0  0  0
   -9.9300  -14.6929   23.8263 C   0  0  0  0  0  0  0  0  0  0  0  0
   -9.1265  -13.8806   24.5140 N   0  0  0  0  0  0  0  0  0  0  0  0
   -8.9630  -12.6379   24.0061 C   0  0  0  0  0  0  0  0  0  0  0  0
   -7.9603   -6.4500   24.0512 C   0  0  0  0  0  0  0  0  0  0  0  0
   -6.9263   -5.4852   24.2471 C   0  0  0  0  0  0  0  0  0  0  0  0
   -6.4623   -4.5853   27.4224 H   0  0  0  0  0  0  0  0  0  0  0  0
   -7.9621   -4.0118   26.6206 H   0  0  0  0  0  0  0  0  0  0  0  0
   -7.6390   -5.7680   26.7833 H   0  0  0  0  0  0  0  0  0  0  0  0
   -4.9372   -3.4044   25.8438 H   0  0  0  0  0  0  0  0  0  0  0  0
   -4.3032   -3.7089   23.2167 H   0  0  0  0  0  0  0  0  0  0  0  0
   -5.6944   -5.2813   21.0933 H   0  0  0  0  0  0  0  0  0  0  0  0
   -7.5137   -6.8835   20.7067 H   0  0  0  0  0  0  0  0  0  0  0  0
   -9.3718   -8.1006   21.3393 H   0  0  0  0  0  0  0  0  0  0  0  0
  -10.2303   -7.5661   22.7564 H   0  0  0  0  0  0  0  0  0  0  0  0
   -8.5485   -9.4073   23.7952 H   0  0  0  0  0  0  0  0  0  0  0  0
  -10.9915  -12.8793   21.3694 H   0  0  0  0  0  0  0  0  0  0  0  0
   -9.9818  -15.7108   24.1627 H   0  0  0  0  0  0  0  0  0  0  0  0
   -8.2410  -12.0183   24.5283 H   0  0  0  0  0  0  0  0  0  0  0  0
   -8.5841   -6.7635   24.8837 H   0  0  0  0  0  0  0  0  0  0  0  0
  1  2  1  0
  2  3  1  0
  3  4  2  0
  4  5  1  0
  5  6  2  0
  6  7  1  0
  7  8  2  0
  8  9  1  0
  9 10  1  0
 10 11  1  0
 11 12  2  0
 11 13  2  0
 11 14  1  0
 14 15  2  0
 15 16  1  0
 16 17  2  0
 17 18  1  0
 18 19  2  0
  8 20  1  0
 20 21  2  0
 21  2  1  0
 21  5  1  0
 19 14  1  0
  1 22  1  0
  1 23  1  0
  1 24  1  0
  3 25  1  0
  4 26  1  0
  6 27  1  0
  7 28  1  0
  9 29  1  0
  9 30  1  0
 10 31  1  0
 15 32  1  0
 17 33  1  0
 19 34  1  0
 20 35  1  0
M  END
>  <Energy>  (1290) 
-65.123852116026143

>  <compound_id>  (1290) 
75246

>  <target_id>  (1290) 
1

>  <reference_id>  (1290) 
54

>  <inspiration_ids>  (1290) 
[40, 54]

>  <energy_score>  (1290) 
-15.133856292333064

>  <distance_score>  (1290) 
11.040851701651912

>  <path>  (1290) 
/opt/xchem-fragalysis-2/maxwin/BulkDock/SCRATCH/511017/C75246-P54/C75246-P54.minimised.mol

>  <scratch_subdir>  (1290) 
/opt/xchem-fragalysis-2/maxwin/BulkDock/SCRATCH/511017/C75246-P54

>  <fragmenstein_runtime>  (1290) 
11.298107624053955

>  <fragmenstein_outcome>  (1290) 
too moved

>  <fragmenstein_mode>  (1290) 
expansion

>  <fragmenstein_error>  (1290) 


$$$$
C75247-P40
     RDKit          3D

 37 39  0  0  0  0  0  0  0  0999 V2000
   -8.6022  -15.7841   26.9704 O   0  0  0  0  0  0  0  0  0  0  0  0
   -7.9103  -16.1365   27.9715 C   0  0  0  0  0  0  0  0  0  0  0  0
   -6.7300  -14.5211   28.6998 C   0  0  0  0  0  0  0  0  0  0  0  0
   -5.3492  -13.4141   29.6717 N   0  0  0  0  0  0  0  0  0  0  0  0
   -3.8829  -12.1315   29.0182 C   0  0  0  0  0  0  0  0  0  0  0  0
   -3.9756  -11.9839   27.8494 O   0  0  0  0  0  0  0  0  0  0  0  0
   -2.1540  -11.1375   29.6629 C   0  0  0  0  0  0  0  0  0  0  0  0
   -1.2313  -10.6919   30.6513 C   0  0  0  0  0  0  0  0  0  0  0  0
   -1.4797   -9.5803   31.7633 C   0  0  0  0  0  0  0  0  0  0  0  0
   -1.4745   -8.2697   31.5728 C   0  0  0  0  0  0  0  0  0  0  0  0
   -1.0296   -8.2920   30.3234 C   0  0  0  0  0  0  0  0  0  0  0  0
   -0.6323   -7.1657   29.6731 N   0  0  0  0  0  0  0  0  0  0  0  0
    0.3856   -7.6129   28.9638 C   0  0  0  0  0  0  0  0  0  0  0  0
    0.1727   -8.9859   28.9208 C   0  0  0  0  0  0  0  0  0  0  0  0
   -1.0648   -9.6574   29.4024 C   0  0  0  0  0  0  0  0  0  0  0  0
   -8.2622  -17.8635   28.3850 O   0  0  0  0  0  0  0  0  0  0  0  0
   -9.0439  -19.6674   28.2646 C   0  0  0  0  0  0  0  0  0  0  0  0
  -10.2249  -21.2695   27.8867 C   0  0  0  0  0  0  0  0  0  0  0  0
  -10.3963  -22.2884   28.7580 C   0  0  0  0  0  0  0  0  0  0  0  0
  -11.1525  -22.0536   29.8213 N   0  0  0  0  0  0  0  0  0  0  0  0
  -12.2877  -21.5870   29.4383 C   0  0  0  0  0  0  0  0  0  0  0  0
  -12.5239  -21.4487   28.1509 N   0  0  0  0  0  0  0  0  0  0  0  0
  -11.4714  -21.4557   27.3295 C   0  0  0  0  0  0  0  0  0  0  0  0
   -6.1617  -15.3054   29.2519 H   0  0  0  0  0  0  0  0  0  0  0  0
   -7.5691  -13.9938   29.0877 H   0  0  0  0  0  0  0  0  0  0  0  0
   -5.2073  -13.5908   30.6053 H   0  0  0  0  0  0  0  0  0  0  0  0
   -0.6187  -11.5164   30.9541 H   0  0  0  0  0  0  0  0  0  0  0  0
   -2.1479   -9.7070   32.5980 H   0  0  0  0  0  0  0  0  0  0  0  0
   -1.6510   -7.4644   32.2568 H   0  0  0  0  0  0  0  0  0  0  0  0
   -0.7110   -6.2262   30.0432 H   0  0  0  0  0  0  0  0  0  0  0  0
    1.1841   -6.9786   28.5952 H   0  0  0  0  0  0  0  0  0  0  0  0
    1.0188   -9.2744   28.3997 H   0  0  0  0  0  0  0  0  0  0  0  0
  -10.0098  -20.1405   29.0843 H   0  0  0  0  0  0  0  0  0  0  0  0
   -9.4805  -18.7861   27.7468 H   0  0  0  0  0  0  0  0  0  0  0  0
  -10.4225  -23.3322   28.4166 H   0  0  0  0  0  0  0  0  0  0  0  0
  -13.0565  -21.3868   30.1496 H   0  0  0  0  0  0  0  0  0  0  0  0
  -11.7599  -21.3425   26.2941 H   0  0  0  0  0  0  0  0  0  0  0  0
  1  2  2  0
  2  3  1  0
  3  4  1  0
  4  5  1  0
  5  6  2  0
  5  7  1  0
  7  8  2  0
  8  9  1  0
  9 10  2  0
 10 11  1  0
 11 12  1  0
 12 13  1  0
 13 14  2  0
 14 15  1  0
  2 16  1  0
 16 17  1  0
 17 18  1  0
 18 19  2  0
 19 20  1  0
 20 21  2  0
 21 22  1  0
 22 23  2  0
 15  7  1  0
 23 18  1  0
 15 11  2  0
  3 24  1  0
  3 25  1  0
  4 26  1  0
  8 27  1  0
  9 28  1  0
 10 29  1  0
 12 30  1  0
 13 31  1  0
 14 32  1  0
 17 33  1  0
 17 34  1  0
 19 35  1  0
 21 36  1  0
 23 37  1  0
M  END
>  <Energy>  (1291) 
1462.9350200445722

>  <compound_id>  (1291) 
75247

>  <target_id>  (1291) 
1

>  <reference_id>  (1291) 
40

>  <inspiration_ids>  (1291) 
[40, 54]

>  <energy_score>  (1291) 
1410.0905563869471

>  <distance_score>  (1291) 
3.8933000170856182

>  <path>  (1291) 
/opt/xchem-fragalysis-2/maxwin/BulkDock/SCRATCH/511017/C75247-P40/C75247-P40.minimised.mol

>  <scratch_subdir>  (1291) 
/opt/xchem-fragalysis-2/maxwin/BulkDock/SCRATCH/511017/C75247-P40

>  <fragmenstein_runtime>  (1291) 
12.849982500076294

>  <fragmenstein_outcome>  (1291) 
too moved

>  <fragmenstein_mode>  (1291) 
expansion

>  <fragmenstein_error>  (1291) 


$$$$
C75247-P54
     RDKit          3D

 37 39  0  0  0  0  0  0  0  0999 V2000
   -5.3754  -14.3605   28.0162 O   0  0  0  0  0  0  0  0  0  0  0  0
   -6.3975  -13.9583   27.4625 C   0  0  0  0  0  0  0  0  0  0  0  0
   -6.4312  -11.9514   27.4719 C   0  0  0  0  0  0  0  0  0  0  0  0
   -5.2839  -10.4212   27.6948 N   0  0  0  0  0  0  0  0  0  0  0  0
   -5.4953   -8.9454   28.6018 C   0  0  0  0  0  0  0  0  0  0  0  0
   -6.5084   -8.6775   29.1671 O   0  0  0  0  0  0  0  0  0  0  0  0
   -4.2095   -7.4738   28.8337 C   0  0  0  0  0  0  0  0  0  0  0  0
   -4.6320   -6.3118   29.6442 C   0  0  0  0  0  0  0  0  0  0  0  0
   -3.9527   -5.1015   29.8724 C   0  0  0  0  0  0  0  0  0  0  0  0
   -2.8650   -4.7553   29.1143 C   0  0  0  0  0  0  0  0  0  0  0  0
   -2.4484   -5.7356   28.2363 C   0  0  0  0  0  0  0  0  0  0  0  0
   -1.5356   -5.5997   27.1534 N   0  0  0  0  0  0  0  0  0  0  0  0
   -1.3834   -6.8351   26.5203 C   0  0  0  0  0  0  0  0  0  0  0  0
   -2.1541   -7.7581   27.2283 C   0  0  0  0  0  0  0  0  0  0  0  0
   -2.9450   -7.1020   28.2459 C   0  0  0  0  0  0  0  0  0  0  0  0
   -7.5876  -15.4062   26.9926 O   0  0  0  0  0  0  0  0  0  0  0  0
   -8.3444  -17.2225   27.5246 C   0  0  0  0  0  0  0  0  0  0  0  0
   -9.6753  -18.5279   28.6696 C   0  0  0  0  0  0  0  0  0  0  0  0
   -9.9123  -19.9393   28.2360 C   0  0  0  0  0  0  0  0  0  0  0  0
  -10.8075  -20.9515   28.5459 N   0  0  0  0  0  0  0  0  0  0  0  0
  -11.4952  -20.7383   29.6378 C   0  0  0  0  0  0  0  0  0  0  0  0
  -11.3064  -19.6727   30.3868 N   0  0  0  0  0  0  0  0  0  0  0  0
  -10.4001  -18.7140   29.9313 C   0  0  0  0  0  0  0  0  0  0  0  0
   -6.8099  -11.7136   28.4685 H   0  0  0  0  0  0  0  0  0  0  0  0
   -7.0999  -11.7085   26.6416 H   0  0  0  0  0  0  0  0  0  0  0  0
   -4.3264  -10.4711   27.3756 H   0  0  0  0  0  0  0  0  0  0  0  0
   -5.4753   -6.4249   30.3199 H   0  0  0  0  0  0  0  0  0  0  0  0
   -4.3224   -4.4299   30.6405 H   0  0  0  0  0  0  0  0  0  0  0  0
   -2.4043   -3.7748   29.1689 H   0  0  0  0  0  0  0  0  0  0  0  0
   -1.0058   -4.7656   26.9201 H   0  0  0  0  0  0  0  0  0  0  0  0
   -0.8155   -6.9413   25.6059 H   0  0  0  0  0  0  0  0  0  0  0  0
   -2.5025   -8.6969   26.8585 H   0  0  0  0  0  0  0  0  0  0  0  0
   -9.1072  -16.8562   26.8451 H   0  0  0  0  0  0  0  0  0  0  0  0
   -7.5934  -18.0041   27.3198 H   0  0  0  0  0  0  0  0  0  0  0  0
   -8.9971  -20.4985   28.0652 H   0  0  0  0  0  0  0  0  0  0  0  0
  -12.2048  -21.4836   29.9692 H   0  0  0  0  0  0  0  0  0  0  0  0
  -10.2460  -18.1036   30.8285 H   0  0  0  0  0  0  0  0  0  0  0  0
  1  2  2  0
  2  3  1  0
  3  4  1  0
  4  5  1  0
  5  6  2  0
  5  7  1  0
  7  8  2  0
  8  9  1  0
  9 10  2  0
 10 11  1  0
 11 12  1  0
 12 13  1  0
 13 14  2  0
 14 15  1  0
  2 16  1  0
 16 17  1  0
 17 18  1  0
 18 19  2  0
 19 20  1  0
 20 21  2  0
 21 22  1  0
 22 23  2  0
 15  7  1  0
 23 18  1  0
 15 11  2  0
  3 24  1  0
  3 25  1  0
  4 26  1  0
  8 27  1  0
  9 28  1  0
 10 29  1  0
 12 30  1  0
 13 31  1  0
 14 32  1  0
 17 33  1  0
 17 34  1  0
 19 35  1  0
 21 36  1  0
 23 37  1  0
M  END
>  <Energy>  (1292) 
810.16661847018599

>  <compound_id>  (1292) 
75247

>  <target_id>  (1292) 
1

>  <reference_id>  (1292) 
54

>  <inspiration_ids>  (1292) 
[40, 54]

>  <energy_score>  (1292) 
757.322154812571

>  <distance_score>  (1292) 
4.361970226110407

>  <path>  (1292) 
/opt/xchem-fragalysis-2/maxwin/BulkDock/SCRATCH/511017/C75247-P54/C75247-P54.minimised.mol

>  <scratch_subdir>  (1292) 
/opt/xchem-fragalysis-2/maxwin/BulkDock/SCRATCH/511017/C75247-P54

>  <fragmenstein_runtime>  (1292) 
17.650065660476685

>  <fragmenstein_outcome>  (1292) 
too moved

>  <fragmenstein_mode>  (1292) 
expansion

>  <fragmenstein_error>  (1292) 


$$$$
C75249-P40
     RDKit          3D

 41 43  0  0  0  0  0  0  0  0999 V2000
  -10.8295  -21.3031   27.1503 C   0  0  0  0  0  0  0  0  0  0  0  0
   -9.3438  -20.1942   27.9917 C   0  0  0  0  0  0  0  0  0  0  0  0
   -7.9254  -21.5554   27.6777 C   0  0  0  0  0  0  0  0  0  0  0  0
   -8.7382  -18.0996   27.8421 C   0  0  0  0  0  0  0  0  0  0  0  0
   -9.5505  -17.4731   27.0949 O   0  0  0  0  0  0  0  0  0  0  0  0
   -7.3401  -16.9490   28.3125 O   0  0  0  0  0  0  0  0  0  0  0  0
   -6.3821  -15.2011   28.7932 C   0  0  0  0  0  0  0  0  0  0  0  0
   -5.4916  -13.5367   29.7572 C   0  0  0  0  0  0  0  0  0  0  0  0
   -6.1203  -13.5827   30.8646 O   0  0  0  0  0  0  0  0  0  0  0  0
   -3.9587  -12.1995   29.2799 C   0  0  0  0  0  0  0  0  0  0  0  0
   -2.6750  -12.4531   28.8529 C   0  0  0  0  0  0  0  0  0  0  0  0
   -2.2195  -11.4123   28.0596 N   0  0  0  0  0  0  0  0  0  0  0  0
   -1.4313  -10.5449   28.9631 C   0  0  0  0  0  0  0  0  0  0  0  0
   -0.4978   -9.2597   29.1175 C   0  0  0  0  0  0  0  0  0  0  0  0
   -0.2701   -8.4424   30.2237 C   0  0  0  0  0  0  0  0  0  0  0  0
   -0.9138   -8.8136   31.3277 C   0  0  0  0  0  0  0  0  0  0  0  0
   -1.8014   -9.8918   31.1103 C   0  0  0  0  0  0  0  0  0  0  0  0
   -2.3889  -11.0828   29.8320 C   0  0  0  0  0  0  0  0  0  0  0  0
  -10.6822  -20.9094   29.1811 C   0  0  0  0  0  0  0  0  0  0  0  0
  -11.9627  -20.3500   29.3112 C   0  0  0  0  0  0  0  0  0  0  0  0
  -12.9520  -20.9413   29.7880 N   0  0  0  0  0  0  0  0  0  0  0  0
  -12.3487  -21.4919   30.7210 C   0  0  0  0  0  0  0  0  0  0  0  0
  -11.4158  -22.3510   30.5682 N   0  0  0  0  0  0  0  0  0  0  0  0
  -10.8613  -22.2079   29.4208 C   0  0  0  0  0  0  0  0  0  0  0  0
  -11.1885  -21.0042   26.1660 H   0  0  0  0  0  0  0  0  0  0  0  0
  -11.8879  -21.2987   27.4759 H   0  0  0  0  0  0  0  0  0  0  0  0
  -10.7137  -22.4112   27.1875 H   0  0  0  0  0  0  0  0  0  0  0  0
   -8.1465  -22.4696   28.2311 H   0  0  0  0  0  0  0  0  0  0  0  0
   -6.9047  -21.2801   27.7050 H   0  0  0  0  0  0  0  0  0  0  0  0
   -7.7221  -22.1581   26.7948 H   0  0  0  0  0  0  0  0  0  0  0  0
   -5.9274  -15.8054   29.6078 H   0  0  0  0  0  0  0  0  0  0  0  0
   -7.2889  -14.5919   28.5436 H   0  0  0  0  0  0  0  0  0  0  0  0
   -2.2800  -13.4928   28.7556 H   0  0  0  0  0  0  0  0  0  0  0  0
   -2.1825  -11.4320   27.0414 H   0  0  0  0  0  0  0  0  0  0  0  0
   -0.3086   -8.5775   28.3000 H   0  0  0  0  0  0  0  0  0  0  0  0
    0.3058   -7.5272   30.1719 H   0  0  0  0  0  0  0  0  0  0  0  0
   -0.9059   -8.2443   32.2499 H   0  0  0  0  0  0  0  0  0  0  0  0
   -2.5499   -9.6546   31.8846 H   0  0  0  0  0  0  0  0  0  0  0  0
  -12.3298  -19.4263   28.9402 H   0  0  0  0  0  0  0  0  0  0  0  0
  -12.6021  -21.0886   31.6593 H   0  0  0  0  0  0  0  0  0  0  0  0
  -10.4217  -23.0626   28.9408 H   0  0  0  0  0  0  0  0  0  0  0  0
  1  2  1  0
  2  3  1  0
  2  4  1  0
  4  5  2  0
  4  6  1  0
  6  7  1  0
  7  8  1  0
  8  9  2  0
  8 10  1  0
 10 11  2  0
 11 12  1  0
 12 13  1  0
 13 14  2  0
 14 15  1  0
 15 16  2  0
 16 17  1  0
 17 18  2  0
  2 19  1  0
 19 20  2  0
 20 21  1  0
 21 22  2  0
 22 23  1  0
 23 24  2  0
 18 10  1  0
 24 19  1  0
 18 13  1  0
  1 25  1  0
  1 26  1  0
  1 27  1  0
  3 28  1  0
  3 29  1  0
  3 30  1  0
  7 31  1  0
  7 32  1  0
 11 33  1  0
 12 34  1  0
 14 35  1  0
 15 36  1  0
 16 37  1  0
 17 38  1  0
 20 39  1  0
 22 40  1  0
 24 41  1  0
M  END
>  <Energy>  (1293) 
1438.4749091242686

>  <compound_id>  (1293) 
75249

>  <target_id>  (1293) 
1

>  <reference_id>  (1293) 
40

>  <inspiration_ids>  (1293) 
[40, 54]

>  <energy_score>  (1293) 
1342.6129496153467

>  <distance_score>  (1293) 
4.716091910875153

>  <path>  (1293) 
/opt/xchem-fragalysis-2/maxwin/BulkDock/SCRATCH/511017/C75249-P40/C75249-P40.minimised.mol

>  <scratch_subdir>  (1293) 
/opt/xchem-fragalysis-2/maxwin/BulkDock/SCRATCH/511017/C75249-P40

>  <fragmenstein_runtime>  (1293) 
14.826409578323364

>  <fragmenstein_outcome>  (1293) 
too moved

>  <fragmenstein_mode>  (1293) 
expansion

>  <fragmenstein_error>  (1293) 


$$$$
C75249-P54
     RDKit          3D

 41 43  0  0  0  0  0  0  0  0999 V2000
   -8.8095  -22.0995   27.4140 C   0  0  0  0  0  0  0  0  0  0  0  0
   -7.8261  -20.5080   27.7410 C   0  0  0  0  0  0  0  0  0  0  0  0
   -6.3928  -20.9572   27.7992 C   0  0  0  0  0  0  0  0  0  0  0  0
   -7.1961  -18.6950   27.0918 C   0  0  0  0  0  0  0  0  0  0  0  0
   -8.0605  -17.5946   27.5264 O   0  0  0  0  0  0  0  0  0  0  0  0
   -5.7576  -18.0351   26.2313 O   0  0  0  0  0  0  0  0  0  0  0  0
   -5.0655  -16.2381   26.4603 C   0  0  0  0  0  0  0  0  0  0  0  0
   -3.7517  -14.6213   26.5114 C   0  0  0  0  0  0  0  0  0  0  0  0
   -2.7140  -14.6560   25.8271 O   0  0  0  0  0  0  0  0  0  0  0  0
   -3.9059  -13.3911   28.0017 C   0  0  0  0  0  0  0  0  0  0  0  0
   -5.3834  -13.4367   28.4217 C   0  0  0  0  0  0  0  0  0  0  0  0
   -6.0881  -12.0737   28.2922 N   0  0  0  0  0  0  0  0  0  0  0  0
   -5.3426  -10.9513   27.9211 C   0  0  0  0  0  0  0  0  0  0  0  0
   -5.3914   -9.5597   28.2214 C   0  0  0  0  0  0  0  0  0  0  0  0
   -4.2068   -8.7735   28.1135 C   0  0  0  0  0  0  0  0  0  0  0  0
   -3.1812   -9.0963   27.3584 C   0  0  0  0  0  0  0  0  0  0  0  0
   -3.4550  -10.3233   26.8986 C   0  0  0  0  0  0  0  0  0  0  0  0
   -4.0086  -11.4598   27.7002 C   0  0  0  0  0  0  0  0  0  0  0  0
   -9.5574  -20.6797   28.6067 C   0  0  0  0  0  0  0  0  0  0  0  0
  -10.7847  -20.2847   28.1773 C   0  0  0  0  0  0  0  0  0  0  0  0
  -11.9486  -20.4762   28.8581 N   0  0  0  0  0  0  0  0  0  0  0  0
  -11.9779  -21.2466   29.9510 C   0  0  0  0  0  0  0  0  0  0  0  0
  -10.9765  -21.9736   30.3660 N   0  0  0  0  0  0  0  0  0  0  0  0
   -9.8532  -21.7067   29.6879 C   0  0  0  0  0  0  0  0  0  0  0  0
   -8.5650  -22.6092   26.5185 H   0  0  0  0  0  0  0  0  0  0  0  0
   -9.8941  -22.1080   27.1668 H   0  0  0  0  0  0  0  0  0  0  0  0
   -8.6516  -22.8597   28.2019 H   0  0  0  0  0  0  0  0  0  0  0  0
   -5.6181  -20.1998   27.7696 H   0  0  0  0  0  0  0  0  0  0  0  0
   -6.1016  -21.2807   26.7990 H   0  0  0  0  0  0  0  0  0  0  0  0
   -6.2329  -21.6677   28.6122 H   0  0  0  0  0  0  0  0  0  0  0  0
   -4.0631  -16.5518   26.5488 H   0  0  0  0  0  0  0  0  0  0  0  0
   -5.6715  -15.7335   27.2818 H   0  0  0  0  0  0  0  0  0  0  0  0
   -5.8427  -14.2989   28.7784 H   0  0  0  0  0  0  0  0  0  0  0  0
   -6.8553  -11.8458   28.8954 H   0  0  0  0  0  0  0  0  0  0  0  0
   -6.1464   -9.0889   28.8577 H   0  0  0  0  0  0  0  0  0  0  0  0
   -4.0997   -7.7953   28.6341 H   0  0  0  0  0  0  0  0  0  0  0  0
   -2.4156   -8.3982   27.0704 H   0  0  0  0  0  0  0  0  0  0  0  0
   -4.0428  -10.0966   25.9789 H   0  0  0  0  0  0  0  0  0  0  0  0
  -10.9594  -19.9810   27.1623 H   0  0  0  0  0  0  0  0  0  0  0  0
  -12.9036  -21.3076   30.5050 H   0  0  0  0  0  0  0  0  0  0  0  0
   -9.0730  -22.3833   30.0650 H   0  0  0  0  0  0  0  0  0  0  0  0
  1  2  1  0
  2  3  1  0
  2  4  1  0
  4  5  2  0
  4  6  1  0
  6  7  1  0
  7  8  1  0
  8  9  2  0
  8 10  1  0
 10 11  2  0
 11 12  1  0
 12 13  1  0
 13 14  2  0
 14 15  1  0
 15 16  2  0
 16 17  1  0
 17 18  2  0
  2 19  1  0
 19 20  2  0
 20 21  1  0
 21 22  2  0
 22 23  1  0
 23 24  2  0
 18 10  1  0
 24 19  1  0
 18 13  1  0
  1 25  1  0
  1 26  1  0
  1 27  1  0
  3 28  1  0
  3 29  1  0
  3 30  1  0
  7 31  1  0
  7 32  1  0
 11 33  1  0
 12 34  1  0
 14 35  1  0
 15 36  1  0
 16 37  1  0
 17 38  1  0
 20 39  1  0
 22 40  1  0
 24 41  1  0
M  END
>  <Energy>  (1294) 
935.32681926557234

>  <compound_id>  (1294) 
75249

>  <target_id>  (1294) 
1

>  <reference_id>  (1294) 
54

>  <inspiration_ids>  (1294) 
[40, 54]

>  <energy_score>  (1294) 
839.4648597566494

>  <distance_score>  (1294) 
6.38584798039331

>  <path>  (1294) 
/opt/xchem-fragalysis-2/maxwin/BulkDock/SCRATCH/511017/C75249-P54/C75249-P54.minimised.mol

>  <scratch_subdir>  (1294) 
/opt/xchem-fragalysis-2/maxwin/BulkDock/SCRATCH/511017/C75249-P54

>  <fragmenstein_runtime>  (1294) 
13.299638509750366

>  <fragmenstein_outcome>  (1294) 
too moved

>  <fragmenstein_mode>  (1294) 
expansion

>  <fragmenstein_error>  (1294) 


$$$$
C75250-P40
     RDKit          3D

 34 36  0  0  0  0  0  0  0  0999 V2000
   -0.6878  -10.7701   29.1762 O   0  0  0  0  0  0  0  0  0  0  0  0
   -1.6045  -10.5587   29.8996 C   0  0  0  0  0  0  0  0  0  0  0  0
   -3.1846  -11.2760   29.9555 N   0  0  0  0  0  0  0  0  0  0  0  0
   -3.7944  -12.4087   29.1976 C   0  0  0  0  0  0  0  0  0  0  0  0
   -5.3839  -13.6464   29.9178 C   0  0  0  0  0  0  0  0  0  0  0  0
   -5.3330  -15.4179   30.3620 C   0  0  0  0  0  0  0  0  0  0  0  0
   -5.6615  -15.6129   31.5887 C   0  0  0  0  0  0  0  0  0  0  0  0
   -6.3185  -16.8105   32.3828 N   0  0  0  0  0  0  0  0  0  0  0  0
   -6.9144  -17.8936   32.0746 C   0  0  0  0  0  0  0  0  0  0  0  0
   -6.6659  -17.9349   30.7918 N   0  0  0  0  0  0  0  0  0  0  0  0
   -5.7630  -16.6653   29.9432 C   0  0  0  0  0  0  0  0  0  0  0  0
   -1.2955   -9.3605   31.0455 C   0  0  0  0  0  0  0  0  0  0  0  0
   -2.1068   -8.4391   31.7382 C   0  0  0  0  0  0  0  0  0  0  0  0
   -1.3449   -7.2089   31.6834 C   0  0  0  0  0  0  0  0  0  0  0  0
   -1.0185   -6.2457   30.6796 C   0  0  0  0  0  0  0  0  0  0  0  0
    0.0185   -5.3249   30.8584 C   0  0  0  0  0  0  0  0  0  0  0  0
    0.8766   -5.5250   31.9198 C   0  0  0  0  0  0  0  0  0  0  0  0
    0.8125   -6.7375   32.6121 C   0  0  0  0  0  0  0  0  0  0  0  0
   -0.1545   -7.6791   32.2016 C   0  0  0  0  0  0  0  0  0  0  0  0
   -0.1198   -8.6140   31.1274 N   0  0  0  0  0  0  0  0  0  0  0  0
   -3.7610  -10.8065   30.6457 H   0  0  0  0  0  0  0  0  0  0  0  0
   -2.8117  -12.9503   29.2107 H   0  0  0  0  0  0  0  0  0  0  0  0
   -4.1028  -11.9779   28.2537 H   0  0  0  0  0  0  0  0  0  0  0  0
   -6.2883  -13.7275   29.2735 H   0  0  0  0  0  0  0  0  0  0  0  0
   -6.0145  -13.3056   30.7762 H   0  0  0  0  0  0  0  0  0  0  0  0
   -5.6927  -14.6892   32.0909 H   0  0  0  0  0  0  0  0  0  0  0  0
   -7.3178  -18.6178   32.7373 H   0  0  0  0  0  0  0  0  0  0  0  0
   -5.8497  -17.1944   29.0322 H   0  0  0  0  0  0  0  0  0  0  0  0
   -3.1859   -8.4940   31.7553 H   0  0  0  0  0  0  0  0  0  0  0  0
   -1.3910   -6.4224   29.6796 H   0  0  0  0  0  0  0  0  0  0  0  0
    0.1852   -4.5217   30.1468 H   0  0  0  0  0  0  0  0  0  0  0  0
    1.6533   -4.8018   32.1527 H   0  0  0  0  0  0  0  0  0  0  0  0
    1.5078   -6.9602   33.4134 H   0  0  0  0  0  0  0  0  0  0  0  0
    0.7047   -8.8739   30.6110 H   0  0  0  0  0  0  0  0  0  0  0  0
  1  2  2  0
  2  3  1  0
  3  4  1  0
  4  5  1  0
  5  6  1  0
  6  7  2  0
  7  8  1  0
  8  9  2  0
  9 10  1  0
 10 11  2  0
  2 12  1  0
 12 13  2  0
 13 14  1  0
 14 15  2  0
 15 16  1  0
 16 17  2  0
 17 18  1  0
 18 19  2  0
 19 20  1  0
 11  6  1  0
 20 12  1  0
 19 14  1  0
  3 21  1  0
  4 22  1  0
  4 23  1  0
  5 24  1  0
  5 25  1  0
  7 26  1  0
  9 27  1  0
 11 28  1  0
 13 29  1  0
 15 30  1  0
 16 31  1  0
 17 32  1  0
 18 33  1  0
 20 34  1  0
M  END
>  <Energy>  (1295) 
420.06783755606028

>  <compound_id>  (1295) 
75250

>  <target_id>  (1295) 
1

>  <reference_id>  (1295) 
40

>  <inspiration_ids>  (1295) 
[40, 54]

>  <energy_score>  (1295) 
419.90804301565413

>  <distance_score>  (1295) 
6.777672792352774

>  <path>  (1295) 
/opt/xchem-fragalysis-2/maxwin/BulkDock/SCRATCH/511017/C75250-P40/C75250-P40.minimised.mol

>  <scratch_subdir>  (1295) 
/opt/xchem-fragalysis-2/maxwin/BulkDock/SCRATCH/511017/C75250-P40

>  <fragmenstein_runtime>  (1295) 
12.616787672042847

>  <fragmenstein_outcome>  (1295) 
too moved

>  <fragmenstein_mode>  (1295) 
expansion

>  <fragmenstein_error>  (1295) 


$$$$
C75250-P54
     RDKit          3D

 34 36  0  0  0  0  0  0  0  0999 V2000
    0.5535  -17.8805   26.1795 O   0  0  0  0  0  0  0  0  0  0  0  0
   -0.3096  -17.3837   25.5608 C   0  0  0  0  0  0  0  0  0  0  0  0
   -1.4878  -18.0358   24.7591 N   0  0  0  0  0  0  0  0  0  0  0  0
   -1.7877  -19.4679   24.4746 C   0  0  0  0  0  0  0  0  0  0  0  0
   -3.2753  -20.0347   24.3481 C   0  0  0  0  0  0  0  0  0  0  0  0
   -3.6705  -21.1264   25.3138 C   0  0  0  0  0  0  0  0  0  0  0  0
   -4.8582  -21.7006   25.0847 C   0  0  0  0  0  0  0  0  0  0  0  0
   -5.8108  -21.4627   25.9801 N   0  0  0  0  0  0  0  0  0  0  0  0
   -5.5219  -20.8797   27.1513 C   0  0  0  0  0  0  0  0  0  0  0  0
   -4.2861  -20.7711   27.5797 N   0  0  0  0  0  0  0  0  0  0  0  0
   -3.3599  -21.0231   26.6430 C   0  0  0  0  0  0  0  0  0  0  0  0
   -0.2019  -15.8859   25.4415 C   0  0  0  0  0  0  0  0  0  0  0  0
   -0.9592  -14.8438   24.9054 C   0  0  0  0  0  0  0  0  0  0  0  0
   -0.0300  -13.8148   24.5571 C   0  0  0  0  0  0  0  0  0  0  0  0
   -0.0164  -12.8679   23.5299 C   0  0  0  0  0  0  0  0  0  0  0  0
    1.1742  -12.2321   23.2286 C   0  0  0  0  0  0  0  0  0  0  0  0
    2.3321  -12.5024   23.9612 C   0  0  0  0  0  0  0  0  0  0  0  0
    2.3438  -13.4032   24.9969 C   0  0  0  0  0  0  0  0  0  0  0  0
    1.1507  -14.0667   25.2379 C   0  0  0  0  0  0  0  0  0  0  0  0
    0.9111  -15.1934   25.9759 N   0  0  0  0  0  0  0  0  0  0  0  0
   -2.0056  -17.3157   24.2726 H   0  0  0  0  0  0  0  0  0  0  0  0
   -1.3109  -19.6342   23.5000 H   0  0  0  0  0  0  0  0  0  0  0  0
   -1.1988  -20.0542   25.1871 H   0  0  0  0  0  0  0  0  0  0  0  0
   -3.3716  -20.4355   23.3297 H   0  0  0  0  0  0  0  0  0  0  0  0
   -3.9666  -19.1883   24.4240 H   0  0  0  0  0  0  0  0  0  0  0  0
   -5.1603  -22.1045   24.1260 H   0  0  0  0  0  0  0  0  0  0  0  0
   -6.3669  -20.6045   27.7561 H   0  0  0  0  0  0  0  0  0  0  0  0
   -2.3334  -20.8732   26.9730 H   0  0  0  0  0  0  0  0  0  0  0  0
   -1.9381  -14.9709   24.4639 H   0  0  0  0  0  0  0  0  0  0  0  0
   -0.8795  -12.7442   22.8800 H   0  0  0  0  0  0  0  0  0  0  0  0
    1.2019  -11.6281   22.3261 H   0  0  0  0  0  0  0  0  0  0  0  0
    3.3032  -12.1539   23.6172 H   0  0  0  0  0  0  0  0  0  0  0  0
    3.2913  -13.7471   25.4020 H   0  0  0  0  0  0  0  0  0  0  0  0
    1.6175  -15.6982   26.4927 H   0  0  0  0  0  0  0  0  0  0  0  0
  1  2  2  0
  2  3  1  0
  3  4  1  0
  4  5  1  0
  5  6  1  0
  6  7  2  0
  7  8  1  0
  8  9  2  0
  9 10  1  0
 10 11  2  0
  2 12  1  0
 12 13  2  0
 13 14  1  0
 14 15  2  0
 15 16  1  0
 16 17  2  0
 17 18  1  0
 18 19  2  0
 19 20  1  0
 11  6  1  0
 20 12  1  0
 19 14  1  0
  3 21  1  0
  4 22  1  0
  4 23  1  0
  5 24  1  0
  5 25  1  0
  7 26  1  0
  9 27  1  0
 11 28  1  0
 13 29  1  0
 15 30  1  0
 16 31  1  0
 17 32  1  0
 18 33  1  0
 20 34  1  0
M  END
>  <Energy>  (1296) 
62.086710401794058

>  <compound_id>  (1296) 
75250

>  <target_id>  (1296) 
1

>  <reference_id>  (1296) 
54

>  <inspiration_ids>  (1296) 
[40, 54]

>  <energy_score>  (1296) 
66.30304078503309

>  <distance_score>  (1296) 
9.712359990378951

>  <path>  (1296) 
/opt/xchem-fragalysis-2/maxwin/BulkDock/SCRATCH/511017/C75250-P54/C75250-P54.minimised.mol

>  <scratch_subdir>  (1296) 
/opt/xchem-fragalysis-2/maxwin/BulkDock/SCRATCH/511017/C75250-P54

>  <fragmenstein_runtime>  (1296) 
10.44245719909668

>  <fragmenstein_outcome>  (1296) 
too moved

>  <fragmenstein_mode>  (1296) 
expansion

>  <fragmenstein_error>  (1296) 


$$$$
C75251-P40
     RDKit          3D

 34 36  0  0  0  0  0  0  0  0999 V2000
   -3.8136  -11.0103   30.2816 O   0  0  0  0  0  0  0  0  0  0  0  0
   -3.0778  -11.6676   29.8462 C   0  0  0  0  0  0  0  0  0  0  0  0
   -3.8430  -13.1855   29.4342 N   0  0  0  0  0  0  0  0  0  0  0  0
   -5.7526  -13.9424   29.7568 C   0  0  0  0  0  0  0  0  0  0  0  0
   -7.1596  -14.8603   28.5052 C   0  0  0  0  0  0  0  0  0  0  0  0
   -8.1935  -16.6149   28.1585 C   0  0  0  0  0  0  0  0  0  0  0  0
   -8.4940  -18.1521   27.9628 C   0  0  0  0  0  0  0  0  0  0  0  0
   -9.2533  -19.7593   28.3864 N   0  0  0  0  0  0  0  0  0  0  0  0
  -10.5064  -20.2033   29.3123 C   0  0  0  0  0  0  0  0  0  0  0  0
  -10.5434  -18.5304   29.2514 N   0  0  0  0  0  0  0  0  0  0  0  0
   -8.7936  -17.7778   28.8687 C   0  0  0  0  0  0  0  0  0  0  0  0
   -1.4621  -10.8417   29.9663 C   0  0  0  0  0  0  0  0  0  0  0  0
   -0.6631   -9.9422   29.2182 C   0  0  0  0  0  0  0  0  0  0  0  0
   -0.2340   -8.6612   29.7173 C   0  0  0  0  0  0  0  0  0  0  0  0
    0.4959   -7.5553   29.2650 C   0  0  0  0  0  0  0  0  0  0  0  0
    1.2688   -7.6776   28.1857 F   0  0  0  0  0  0  0  0  0  0  0  0
    0.5357   -6.3635   29.9922 C   0  0  0  0  0  0  0  0  0  0  0  0
   -0.1066   -6.2895   31.2235 C   0  0  0  0  0  0  0  0  0  0  0  0
   -0.7623   -7.4084   31.7471 C   0  0  0  0  0  0  0  0  0  0  0  0
   -0.7875   -8.5689   30.9594 C   0  0  0  0  0  0  0  0  0  0  0  0
   -1.3317   -9.8196   31.2050 N   0  0  0  0  0  0  0  0  0  0  0  0
   -3.0431  -13.8700   29.1066 H   0  0  0  0  0  0  0  0  0  0  0  0
   -5.4785  -14.8451   30.3692 H   0  0  0  0  0  0  0  0  0  0  0  0
   -6.2501  -13.4530   30.5916 H   0  0  0  0  0  0  0  0  0  0  0  0
   -7.3381  -14.0807   27.6968 H   0  0  0  0  0  0  0  0  0  0  0  0
   -8.0755  -14.3232   28.8795 H   0  0  0  0  0  0  0  0  0  0  0  0
   -7.6665  -18.7016   27.5383 H   0  0  0  0  0  0  0  0  0  0  0  0
  -11.2446  -20.9762   29.2183 H   0  0  0  0  0  0  0  0  0  0  0  0
   -7.9505  -18.5429   29.5733 H   0  0  0  0  0  0  0  0  0  0  0  0
   -0.6687  -10.2175   28.2244 H   0  0  0  0  0  0  0  0  0  0  0  0
    1.0997   -5.5159   29.6133 H   0  0  0  0  0  0  0  0  0  0  0  0
   -0.0665   -5.3694   31.8044 H   0  0  0  0  0  0  0  0  0  0  0  0
   -1.2282   -7.3772   32.7291 H   0  0  0  0  0  0  0  0  0  0  0  0
   -1.9867   -9.8499   31.9693 H   0  0  0  0  0  0  0  0  0  0  0  0
  1  2  2  0
  2  3  1  0
  3  4  1  0
  4  5  1  0
  5  6  1  0
  6  7  2  0
  7  8  1  0
  8  9  2  0
  9 10  1  0
 10 11  2  0
  2 12  1  0
 12 13  2  0
 13 14  1  0
 14 15  2  0
 15 16  1  0
 15 17  1  0
 17 18  2  0
 18 19  1  0
 19 20  2  0
 20 21  1  0
 11  6  1  0
 21 12  1  0
 20 14  1  0
  3 22  1  0
  4 23  1  0
  4 24  1  0
  5 25  1  0
  5 26  1  0
  7 27  1  0
  9 28  1  0
 11 29  1  0
 13 30  1  0
 17 31  1  0
 18 32  1  0
 19 33  1  0
 21 34  1  0
M  END
>  <Energy>  (1297) 
1209.9989873663208

>  <compound_id>  (1297) 
75251

>  <target_id>  (1297) 
1

>  <reference_id>  (1297) 
40

>  <inspiration_ids>  (1297) 
[40, 54]

>  <energy_score>  (1297) 
1204.7951138565581

>  <distance_score>  (1297) 
5.566374847578931

>  <path>  (1297) 
/opt/xchem-fragalysis-2/maxwin/BulkDock/SCRATCH/511017/C75251-P40/C75251-P40.minimised.mol

>  <scratch_subdir>  (1297) 
/opt/xchem-fragalysis-2/maxwin/BulkDock/SCRATCH/511017/C75251-P40

>  <fragmenstein_runtime>  (1297) 
14.176082849502563

>  <fragmenstein_outcome>  (1297) 
too moved

>  <fragmenstein_mode>  (1297) 
expansion

>  <fragmenstein_error>  (1297) 


$$$$
C75251-P54
     RDKit          3D

 34 36  0  0  0  0  0  0  0  0999 V2000
   -3.7617  -13.3892   31.0707 O   0  0  0  0  0  0  0  0  0  0  0  0
   -4.7559  -12.9386   31.5702 C   0  0  0  0  0  0  0  0  0  0  0  0
   -6.2463  -13.7538   31.5405 N   0  0  0  0  0  0  0  0  0  0  0  0
   -6.7155  -15.4473   30.9238 C   0  0  0  0  0  0  0  0  0  0  0  0
   -7.1466  -16.3681   29.0930 C   0  0  0  0  0  0  0  0  0  0  0  0
   -8.4000  -17.5953   27.7864 C   0  0  0  0  0  0  0  0  0  0  0  0
   -9.2638  -19.2372   27.5297 C   0  0  0  0  0  0  0  0  0  0  0  0
  -10.0425  -20.6213   27.9683 N   0  0  0  0  0  0  0  0  0  0  0  0
  -10.8674  -20.5684   28.9426 C   0  0  0  0  0  0  0  0  0  0  0  0
  -10.8716  -19.4207   29.4985 N   0  0  0  0  0  0  0  0  0  0  0  0
   -9.7723  -18.4141   28.9519 C   0  0  0  0  0  0  0  0  0  0  0  0
   -4.3495  -11.2011   32.3607 C   0  0  0  0  0  0  0  0  0  0  0  0
   -4.2488  -10.1185   33.3465 C   0  0  0  0  0  0  0  0  0  0  0  0
   -3.8342   -8.3791   32.8680 C   0  0  0  0  0  0  0  0  0  0  0  0
   -4.3687   -6.7312   32.4265 C   0  0  0  0  0  0  0  0  0  0  0  0
   -5.6408   -6.2564   32.6421 F   0  0  0  0  0  0  0  0  0  0  0  0
   -3.8279   -5.6689   31.6802 C   0  0  0  0  0  0  0  0  0  0  0  0
   -2.7008   -5.9408   31.0523 C   0  0  0  0  0  0  0  0  0  0  0  0
   -2.3328   -7.3083   31.1128 C   0  0  0  0  0  0  0  0  0  0  0  0
   -2.9541   -8.6745   31.9373 C   0  0  0  0  0  0  0  0  0  0  0  0
   -3.0661  -10.4507   31.7618 N   0  0  0  0  0  0  0  0  0  0  0  0
   -6.9161  -13.2228   32.0948 H   0  0  0  0  0  0  0  0  0  0  0  0
   -5.8824  -16.0331   31.3651 H   0  0  0  0  0  0  0  0  0  0  0  0
   -7.3999  -15.6495   31.7492 H   0  0  0  0  0  0  0  0  0  0  0  0
   -6.5385  -16.9390   29.7911 H   0  0  0  0  0  0  0  0  0  0  0  0
   -7.7004  -15.5921   29.3165 H   0  0  0  0  0  0  0  0  0  0  0  0
   -9.7671  -19.2841   26.5756 H   0  0  0  0  0  0  0  0  0  0  0  0
  -11.4777  -21.3921   29.2543 H   0  0  0  0  0  0  0  0  0  0  0  0
   -9.9967  -18.0658   30.0138 H   0  0  0  0  0  0  0  0  0  0  0  0
   -4.0791  -10.3862   34.3862 H   0  0  0  0  0  0  0  0  0  0  0  0
   -4.3615   -4.7476   31.5475 H   0  0  0  0  0  0  0  0  0  0  0  0
   -2.3438   -5.2497   30.2913 H   0  0  0  0  0  0  0  0  0  0  0  0
   -2.2514   -7.3915   30.0420 H   0  0  0  0  0  0  0  0  0  0  0  0
   -2.3203  -10.9466   31.2916 H   0  0  0  0  0  0  0  0  0  0  0  0
  1  2  2  0
  2  3  1  0
  3  4  1  0
  4  5  1  0
  5  6  1  0
  6  7  2  0
  7  8  1  0
  8  9  2  0
  9 10  1  0
 10 11  2  0
  2 12  1  0
 12 13  2  0
 13 14  1  0
 14 15  2  0
 15 16  1  0
 15 17  1  0
 17 18  2  0
 18 19  1  0
 19 20  2  0
 20 21  1  0
 11  6  1  0
 21 12  1  0
 20 14  1  0
  3 22  1  0
  4 23  1  0
  4 24  1  0
  5 25  1  0
  5 26  1  0
  7 27  1  0
  9 28  1  0
 11 29  1  0
 13 30  1  0
 17 31  1  0
 18 32  1  0
 19 33  1  0
 21 34  1  0
M  END
>  <Energy>  (1298) 
1206.5450039386369

>  <compound_id>  (1298) 
75251

>  <target_id>  (1298) 
1

>  <reference_id>  (1298) 
54

>  <inspiration_ids>  (1298) 
[40, 54]

>  <energy_score>  (1298) 
1201.3411304288802

>  <distance_score>  (1298) 
6.403166150418635

>  <path>  (1298) 
/opt/xchem-fragalysis-2/maxwin/BulkDock/SCRATCH/511017/C75251-P54/C75251-P54.minimised.mol

>  <scratch_subdir>  (1298) 
/opt/xchem-fragalysis-2/maxwin/BulkDock/SCRATCH/511017/C75251-P54

>  <fragmenstein_runtime>  (1298) 
14.128289937973022

>  <fragmenstein_outcome>  (1298) 
too moved

>  <fragmenstein_mode>  (1298) 
expansion

>  <fragmenstein_error>  (1298) 


$$$$
C75252-P40
     RDKit          3D

 34 36  0  0  0  0  0  0  0  0999 V2000
   -2.7543  -11.8914   27.2942 O   0  0  0  0  0  0  0  0  0  0  0  0
   -2.8979  -11.6688   28.4737 C   0  0  0  0  0  0  0  0  0  0  0  0
   -3.9560  -11.8092   29.2566 N   0  0  0  0  0  0  0  0  0  0  0  0
   -5.5376  -12.2205   28.9294 C   0  0  0  0  0  0  0  0  0  0  0  0
   -6.9582  -13.3348   27.9321 C   0  0  0  0  0  0  0  0  0  0  0  0
   -8.2605  -14.3060   27.7295 C   0  0  0  0  0  0  0  0  0  0  0  0
   -9.5478  -14.0962   27.3550 C   0  0  0  0  0  0  0  0  0  0  0  0
  -10.4642  -15.0843   26.9609 N   0  0  0  0  0  0  0  0  0  0  0  0
   -9.8649  -16.1528   26.4820 C   0  0  0  0  0  0  0  0  0  0  0  0
   -8.8476  -16.6492   27.0491 N   0  0  0  0  0  0  0  0  0  0  0  0
   -8.1528  -15.7308   27.6851 C   0  0  0  0  0  0  0  0  0  0  0  0
   -1.5828  -10.8565   29.6050 C   0  0  0  0  0  0  0  0  0  0  0  0
   -0.5824  -10.0082   29.0994 C   0  0  0  0  0  0  0  0  0  0  0  0
   -0.2148   -8.7228   29.6029 C   0  0  0  0  0  0  0  0  0  0  0  0
    0.4820   -7.5784   29.1797 C   0  0  0  0  0  0  0  0  0  0  0  0
    0.4911   -6.4333   29.9923 C   0  0  0  0  0  0  0  0  0  0  0  0
   -0.1400   -6.4521   31.2323 C   0  0  0  0  0  0  0  0  0  0  0  0
   -0.1082   -4.9109   32.3233 Br  0  0  0  0  0  0  0  0  0  0  0  0
   -0.7945   -7.5967   31.6893 C   0  0  0  0  0  0  0  0  0  0  0  0
   -0.8026   -8.7004   30.8253 C   0  0  0  0  0  0  0  0  0  0  0  0
   -1.4124   -9.9619   30.9567 N   0  0  0  0  0  0  0  0  0  0  0  0
   -3.7358  -11.4553   30.1288 H   0  0  0  0  0  0  0  0  0  0  0  0
   -5.9023  -11.2339   29.1554 H   0  0  0  0  0  0  0  0  0  0  0  0
   -5.6347  -13.0546   29.7007 H   0  0  0  0  0  0  0  0  0  0  0  0
   -6.6566  -13.2161   26.8836 H   0  0  0  0  0  0  0  0  0  0  0  0
   -6.6798  -14.1682   28.6026 H   0  0  0  0  0  0  0  0  0  0  0  0
  -10.0282  -13.1751   27.1542 H   0  0  0  0  0  0  0  0  0  0  0  0
  -10.1244  -16.6354   25.5682 H   0  0  0  0  0  0  0  0  0  0  0  0
   -7.3903  -16.2743   28.2153 H   0  0  0  0  0  0  0  0  0  0  0  0
   -0.4941  -10.3365   28.1458 H   0  0  0  0  0  0  0  0  0  0  0  0
    1.0089   -7.5447   28.2376 H   0  0  0  0  0  0  0  0  0  0  0  0
    1.0084   -5.5380   29.6516 H   0  0  0  0  0  0  0  0  0  0  0  0
   -1.2787   -7.6308   32.6600 H   0  0  0  0  0  0  0  0  0  0  0  0
   -2.0883   -9.9038   31.6998 H   0  0  0  0  0  0  0  0  0  0  0  0
  1  2  2  0
  2  3  1  0
  3  4  1  0
  4  5  1  0
  5  6  1  0
  6  7  2  0
  7  8  1  0
  8  9  2  0
  9 10  1  0
 10 11  2  0
  2 12  1  0
 12 13  2  0
 13 14  1  0
 14 15  2  0
 15 16  1  0
 16 17  2  0
 17 18  1  0
 17 19  1  0
 19 20  2  0
 20 21  1  0
 11  6  1  0
 21 12  1  0
 20 14  1  0
  3 22  1  0
  4 23  1  0
  4 24  1  0
  5 25  1  0
  5 26  1  0
  7 27  1  0
  9 28  1  0
 11 29  1  0
 13 30  1  0
 15 31  1  0
 16 32  1  0
 19 33  1  0
 21 34  1  0
M  END
>  <Energy>  (1299) 
349.13558614281965

>  <compound_id>  (1299) 
75252

>  <target_id>  (1299) 
1

>  <reference_id>  (1299) 
40

>  <inspiration_ids>  (1299) 
[40, 54]

>  <energy_score>  (1299) 
358.17467759926376

>  <distance_score>  (1299) 
7.0856970080492365

>  <path>  (1299) 
/opt/xchem-fragalysis-2/maxwin/BulkDock/SCRATCH/511017/C75252-P40/C75252-P40.minimised.mol

>  <scratch_subdir>  (1299) 
/opt/xchem-fragalysis-2/maxwin/BulkDock/SCRATCH/511017/C75252-P40

>  <fragmenstein_runtime>  (1299) 
11.313029050827026

>  <fragmenstein_outcome>  (1299) 
too moved

>  <fragmenstein_mode>  (1299) 
expansion

>  <fragmenstein_error>  (1299) 


$$$$
C75252-P54
     RDKit          3D

 34 36  0  0  0  0  0  0  0  0999 V2000
   -3.7839  -13.4030   31.0847 O   0  0  0  0  0  0  0  0  0  0  0  0
   -4.7631  -12.9196   31.5790 C   0  0  0  0  0  0  0  0  0  0  0  0
   -6.2436  -13.6479   31.5616 N   0  0  0  0  0  0  0  0  0  0  0  0
   -6.7712  -15.2793   30.9750 C   0  0  0  0  0  0  0  0  0  0  0  0
   -7.0485  -16.1373   29.1366 C   0  0  0  0  0  0  0  0  0  0  0  0
   -8.0022  -17.3052   27.6544 C   0  0  0  0  0  0  0  0  0  0  0  0
   -9.0944  -18.1469   27.6876 C   0  0  0  0  0  0  0  0  0  0  0  0
   -9.4482  -19.8421   28.0220 N   0  0  0  0  0  0  0  0  0  0  0  0
   -8.3536  -20.7730   27.9805 C   0  0  0  0  0  0  0  0  0  0  0  0
   -7.1652  -20.3313   27.4683 N   0  0  0  0  0  0  0  0  0  0  0  0
   -7.1029  -18.8290   27.1560 C   0  0  0  0  0  0  0  0  0  0  0  0
   -4.3070  -11.1946   32.3447 C   0  0  0  0  0  0  0  0  0  0  0  0
   -3.0523  -10.5915   31.8019 C   0  0  0  0  0  0  0  0  0  0  0  0
   -2.9522   -8.7232   31.9507 C   0  0  0  0  0  0  0  0  0  0  0  0
   -2.3481   -7.2974   31.2044 C   0  0  0  0  0  0  0  0  0  0  0  0
   -2.7921   -5.9325   31.1131 C   0  0  0  0  0  0  0  0  0  0  0  0
   -4.0518   -5.8007   31.5301 C   0  0  0  0  0  0  0  0  0  0  0  0
   -5.3609   -5.3330   30.1975 Br  0  0  0  0  0  0  0  0  0  0  0  0
   -4.4899   -6.8301   32.3660 C   0  0  0  0  0  0  0  0  0  0  0  0
   -3.8959   -8.4316   32.8162 C   0  0  0  0  0  0  0  0  0  0  0  0
   -4.3709  -10.0456   33.2768 N   0  0  0  0  0  0  0  0  0  0  0  0
   -6.8855  -13.0848   32.1134 H   0  0  0  0  0  0  0  0  0  0  0  0
   -7.4344  -15.5474   31.8018 H   0  0  0  0  0  0  0  0  0  0  0  0
   -5.9275  -15.8618   31.3870 H   0  0  0  0  0  0  0  0  0  0  0  0
   -6.5340  -16.8461   29.7683 H   0  0  0  0  0  0  0  0  0  0  0  0
   -6.2405  -15.6095   28.5367 H   0  0  0  0  0  0  0  0  0  0  0  0
   -9.8028  -18.2203   28.7767 H   0  0  0  0  0  0  0  0  0  0  0  0
   -8.6159  -21.8155   28.1413 H   0  0  0  0  0  0  0  0  0  0  0  0
   -6.2228  -18.5598   26.5553 H   0  0  0  0  0  0  0  0  0  0  0  0
   -2.2398  -11.1133   31.2905 H   0  0  0  0  0  0  0  0  0  0  0  0
   -2.1874   -7.3904   30.1559 H   0  0  0  0  0  0  0  0  0  0  0  0
   -2.4379   -5.2859   30.3105 H   0  0  0  0  0  0  0  0  0  0  0  0
   -5.5806   -6.6545   32.4541 H   0  0  0  0  0  0  0  0  0  0  0  0
   -4.1323  -10.2223   34.2387 H   0  0  0  0  0  0  0  0  0  0  0  0
  1  2  2  0
  2  3  1  0
  3  4  1  0
  4  5  1  0
  5  6  1  0
  6  7  2  0
  7  8  1  0
  8  9  2  0
  9 10  1  0
 10 11  2  0
  2 12  1  0
 12 13  2  0
 13 14  1  0
 14 15  2  0
 15 16  1  0
 16 17  2  0
 17 18  1  0
 17 19  1  0
 19 20  2  0
 20 21  1  0
 11  6  1  0
 21 12  1  0
 20 14  1  0
  3 22  1  0
  4 23  1  0
  4 24  1  0
  5 25  1  0
  5 26  1  0
  7 27  1  0
  9 28  1  0
 11 29  1  0
 13 30  1  0
 15 31  1  0
 16 32  1  0
 19 33  1  0
 21 34  1  0
M  END
>  <Energy>  (1300) 
875.77433620104432

>  <compound_id>  (1300) 
75252

>  <target_id>  (1300) 
1

>  <reference_id>  (1300) 
54

>  <inspiration_ids>  (1300) 
[40, 54]

>  <energy_score>  (1300) 
884.8134276574823

>  <distance_score>  (1300) 
6.652843923709159

>  <path>  (1300) 
/opt/xchem-fragalysis-2/maxwin/BulkDock/SCRATCH/511017/C75252-P54/C75252-P54.minimised.mol

>  <scratch_subdir>  (1300) 
/opt/xchem-fragalysis-2/maxwin/BulkDock/SCRATCH/511017/C75252-P54

>  <fragmenstein_runtime>  (1300) 
11.43871259689331

>  <fragmenstein_outcome>  (1300) 
too moved

>  <fragmenstein_mode>  (1300) 
expansion

>  <fragmenstein_error>  (1300) 


$$$$
C75253-P40
     RDKit          3D

 38 40  0  0  0  0  0  0  0  0999 V2000
    0.8323   -5.0641   29.5684 C   0  0  0  0  0  0  0  0  0  0  0  0
    0.5291   -6.3672   29.0728 O   0  0  0  0  0  0  0  0  0  0  0  0
    0.0105   -7.2696   29.9595 C   0  0  0  0  0  0  0  0  0  0  0  0
   -0.2307   -7.0341   31.2919 C   0  0  0  0  0  0  0  0  0  0  0  0
   -0.7590   -8.0647   32.0442 C   0  0  0  0  0  0  0  0  0  0  0  0
   -0.9331   -9.3185   31.4188 C   0  0  0  0  0  0  0  0  0  0  0  0
   -1.5145  -10.4165   31.9098 N   0  0  0  0  0  0  0  0  0  0  0  0
   -1.6746  -12.3004   31.5394 C   0  0  0  0  0  0  0  0  0  0  0  0
   -2.6503  -14.2366   31.4821 C   0  0  0  0  0  0  0  0  0  0  0  0
   -1.9729  -15.1065   32.0249 O   0  0  0  0  0  0  0  0  0  0  0  0
   -4.3341  -14.6830   30.5214 N   0  0  0  0  0  0  0  0  0  0  0  0
   -5.2204  -16.3985   30.0558 C   0  0  0  0  0  0  0  0  0  0  0  0
   -6.4231  -17.7543   28.8285 C   0  0  0  0  0  0  0  0  0  0  0  0
   -8.1989  -18.7961   28.1777 C   0  0  0  0  0  0  0  0  0  0  0  0
   -7.8292  -20.7014   27.7554 C   0  0  0  0  0  0  0  0  0  0  0  0
   -8.3071  -22.3458   27.8907 N   0  0  0  0  0  0  0  0  0  0  0  0
   -9.6958  -22.5642   28.2052 C   0  0  0  0  0  0  0  0  0  0  0  0
  -10.3448  -21.4208   28.4623 N   0  0  0  0  0  0  0  0  0  0  0  0
   -9.3223  -19.9356   28.2437 C   0  0  0  0  0  0  0  0  0  0  0  0
   -1.3526  -11.1333   30.1390 C   0  0  0  0  0  0  0  0  0  0  0  0
   -0.7465   -9.6687   30.1441 C   0  0  0  0  0  0  0  0  0  0  0  0
   -0.3080   -8.5350   29.3970 C   0  0  0  0  0  0  0  0  0  0  0  0
    1.2294   -4.4756   28.7358 H   0  0  0  0  0  0  0  0  0  0  0  0
    1.6029   -5.1095   30.3448 H   0  0  0  0  0  0  0  0  0  0  0  0
   -0.0704   -4.5626   29.9324 H   0  0  0  0  0  0  0  0  0  0  0  0
   -0.0396   -6.0804   31.7703 H   0  0  0  0  0  0  0  0  0  0  0  0
   -0.9951   -7.9273   33.0966 H   0  0  0  0  0  0  0  0  0  0  0  0
   -2.2338  -10.0794   32.5474 H   0  0  0  0  0  0  0  0  0  0  0  0
   -4.7837  -13.8372   30.2202 H   0  0  0  0  0  0  0  0  0  0  0  0
   -4.2796  -16.6840   30.4727 H   0  0  0  0  0  0  0  0  0  0  0  0
   -4.7003  -16.2845   29.1207 H   0  0  0  0  0  0  0  0  0  0  0  0
   -6.4314  -18.3263   29.7727 H   0  0  0  0  0  0  0  0  0  0  0  0
   -5.6726  -18.1449   28.0990 H   0  0  0  0  0  0  0  0  0  0  0  0
   -6.7916  -21.0136   27.5020 H   0  0  0  0  0  0  0  0  0  0  0  0
  -10.1502  -23.5389   28.1824 H   0  0  0  0  0  0  0  0  0  0  0  0
   -9.7254  -20.4315   27.2554 H   0  0  0  0  0  0  0  0  0  0  0  0
   -1.9799  -11.4361   29.3155 H   0  0  0  0  0  0  0  0  0  0  0  0
   -0.2571   -8.4990   28.3462 H   0  0  0  0  0  0  0  0  0  0  0  0
  1  2  1  0
  2  3  1  0
  3  4  2  0
  4  5  1  0
  5  6  2  0
  6  7  1  0
  7  8  1  0
  8  9  1  0
  9 10  2  0
  9 11  1  0
 11 12  1  0
 12 13  1  0
 13 14  1  0
 14 15  2  0
 15 16  1  0
 16 17  2  0
 17 18  1  0
 18 19  2  0
  8 20  2  0
 20 21  1  0
 21 22  2  0
 22  3  1  0
 21  6  1  0
 19 14  1  0
  1 23  1  0
  1 24  1  0
  1 25  1  0
  4 26  1  0
  5 27  1  0
  7 28  1  0
 11 29  1  0
 12 30  1  0
 12 31  1  0
 13 32  1  0
 13 33  1  0
 15 34  1  0
 17 35  1  0
 19 36  1  0
 20 37  1  0
 22 38  1  0
M  END
>  <Energy>  (1301) 
1445.8117829583468

>  <compound_id>  (1301) 
75253

>  <target_id>  (1301) 
1

>  <reference_id>  (1301) 
40

>  <inspiration_ids>  (1301) 
[40, 54]

>  <energy_score>  (1301) 
1439.829706274108

>  <distance_score>  (1301) 
5.6401550374380705

>  <path>  (1301) 
/opt/xchem-fragalysis-2/maxwin/BulkDock/SCRATCH/511017/C75253-P40/C75253-P40.minimised.mol

>  <scratch_subdir>  (1301) 
/opt/xchem-fragalysis-2/maxwin/BulkDock/SCRATCH/511017/C75253-P40

>  <fragmenstein_runtime>  (1301) 
12.95839786529541

>  <fragmenstein_outcome>  (1301) 
too moved

>  <fragmenstein_mode>  (1301) 
expansion

>  <fragmenstein_error>  (1301) 


$$$$
C75253-P54
     RDKit          3D

 38 40  0  0  0  0  0  0  0  0999 V2000
   -1.0012   -6.9001   24.9371 C   0  0  0  0  0  0  0  0  0  0  0  0
   -0.0505   -7.8139   25.3745 O   0  0  0  0  0  0  0  0  0  0  0  0
   -0.0442   -8.0168   26.7205 C   0  0  0  0  0  0  0  0  0  0  0  0
    1.3746   -8.1691   27.1934 C   0  0  0  0  0  0  0  0  0  0  0  0
    1.8171   -8.6884   28.8568 C   0  0  0  0  0  0  0  0  0  0  0  0
    0.6051   -9.6866   29.5711 C   0  0  0  0  0  0  0  0  0  0  0  0
    0.9621  -10.9728   29.7375 N   0  0  0  0  0  0  0  0  0  0  0  0
    0.1437  -12.4309   29.1526 C   0  0  0  0  0  0  0  0  0  0  0  0
    0.8969  -13.8120   28.3101 C   0  0  0  0  0  0  0  0  0  0  0  0
    1.4392  -13.4520   27.3202 O   0  0  0  0  0  0  0  0  0  0  0  0
    0.7295  -15.1593   28.8552 N   0  0  0  0  0  0  0  0  0  0  0  0
    1.2660  -16.4763   28.3960 C   0  0  0  0  0  0  0  0  0  0  0  0
    0.4776  -17.4014   27.3758 C   0  0  0  0  0  0  0  0  0  0  0  0
   -0.2933  -18.6591   27.7633 C   0  0  0  0  0  0  0  0  0  0  0  0
   -0.4343  -19.2005   29.0247 C   0  0  0  0  0  0  0  0  0  0  0  0
   -1.1074  -20.3473   29.3132 N   0  0  0  0  0  0  0  0  0  0  0  0
   -1.6855  -20.9689   28.2841 C   0  0  0  0  0  0  0  0  0  0  0  0
   -1.6351  -20.5553   27.0138 N   0  0  0  0  0  0  0  0  0  0  0  0
   -0.9083  -19.4295   26.7830 C   0  0  0  0  0  0  0  0  0  0  0  0
   -0.8620  -11.6143   28.7829 C   0  0  0  0  0  0  0  0  0  0  0  0
   -0.7346   -9.8576   28.9338 C   0  0  0  0  0  0  0  0  0  0  0  0
   -1.3291   -8.5744   27.7453 C   0  0  0  0  0  0  0  0  0  0  0  0
   -1.5067   -6.3594   25.7362 H   0  0  0  0  0  0  0  0  0  0  0  0
   -1.6200   -7.5246   24.3250 H   0  0  0  0  0  0  0  0  0  0  0  0
   -0.5767   -6.1733   24.2399 H   0  0  0  0  0  0  0  0  0  0  0  0
    2.1148   -7.9297   26.4309 H   0  0  0  0  0  0  0  0  0  0  0  0
    2.7634   -8.6796   29.3688 H   0  0  0  0  0  0  0  0  0  0  0  0
    1.9443  -11.0578   29.6159 H   0  0  0  0  0  0  0  0  0  0  0  0
    0.1524  -15.1134   29.6581 H   0  0  0  0  0  0  0  0  0  0  0  0
    1.5116  -17.0528   29.2909 H   0  0  0  0  0  0  0  0  0  0  0  0
    2.2141  -16.2152   27.9093 H   0  0  0  0  0  0  0  0  0  0  0  0
    1.2759  -17.8021   26.7307 H   0  0  0  0  0  0  0  0  0  0  0  0
   -0.1141  -16.7727   26.7064 H   0  0  0  0  0  0  0  0  0  0  0  0
    0.0030  -18.7248   29.8975 H   0  0  0  0  0  0  0  0  0  0  0  0
   -2.2346  -21.8782   28.4938 H   0  0  0  0  0  0  0  0  0  0  0  0
   -0.8725  -19.1312   25.7364 H   0  0  0  0  0  0  0  0  0  0  0  0
   -1.4554  -12.0878   27.9953 H   0  0  0  0  0  0  0  0  0  0  0  0
   -2.3633   -8.6216   27.3809 H   0  0  0  0  0  0  0  0  0  0  0  0
  1  2  1  0
  2  3  1  0
  3  4  2  0
  4  5  1  0
  5  6  2  0
  6  7  1  0
  7  8  1  0
  8  9  1  0
  9 10  2  0
  9 11  1  0
 11 12  1  0
 12 13  1  0
 13 14  1  0
 14 15  2  0
 15 16  1  0
 16 17  2  0
 17 18  1  0
 18 19  2  0
  8 20  2  0
 20 21  1  0
 21 22  2  0
 22  3  1  0
 21  6  1  0
 19 14  1  0
  1 23  1  0
  1 24  1  0
  1 25  1  0
  4 26  1  0
  5 27  1  0
  7 28  1  0
 11 29  1  0
 12 30  1  0
 12 31  1  0
 13 32  1  0
 13 33  1  0
 15 34  1  0
 17 35  1  0
 19 36  1  0
 20 37  1  0
 22 38  1  0
M  END
>  <Energy>  (1302) 
364.97034522464804

>  <compound_id>  (1302) 
75253

>  <target_id>  (1302) 
1

>  <reference_id>  (1302) 
54

>  <inspiration_ids>  (1302) 
[40, 54]

>  <energy_score>  (1302) 
358.98826854039964

>  <distance_score>  (1302) 
8.644795126109944

>  <path>  (1302) 
/opt/xchem-fragalysis-2/maxwin/BulkDock/SCRATCH/511017/C75253-P54/C75253-P54.minimised.mol

>  <scratch_subdir>  (1302) 
/opt/xchem-fragalysis-2/maxwin/BulkDock/SCRATCH/511017/C75253-P54

>  <fragmenstein_runtime>  (1302) 
16.5523042678833

>  <fragmenstein_outcome>  (1302) 
too moved

>  <fragmenstein_mode>  (1302) 
expansion

>  <fragmenstein_error>  (1302) 


$$$$
C75254-P40
     RDKit          3D

 43 45  0  0  0  0  0  0  0  0999 V2000
   -7.4266  -10.5796   25.6705 C   0  0  0  0  0  0  0  0  0  0  0  0
   -6.7844  -11.7106   25.2323 C   0  0  0  0  0  0  0  0  0  0  0  0
   -6.3710  -13.0490   25.7666 N   0  0  0  0  0  0  0  0  0  0  0  0
   -4.9091  -12.4077   24.5873 C   0  0  0  0  0  0  0  0  0  0  0  0
   -3.3609  -12.3547   25.9774 C   0  0  0  0  0  0  0  0  0  0  0  0
   -2.2428  -13.0643   26.0275 C   0  0  0  0  0  0  0  0  0  0  0  0
   -2.3050  -11.6333   26.3540 N   0  0  0  0  0  0  0  0  0  0  0  0
   -1.9025  -11.1972   27.5889 C   0  0  0  0  0  0  0  0  0  0  0  0
   -0.8865  -10.0953   28.5761 C   0  0  0  0  0  0  0  0  0  0  0  0
   -0.8305   -9.9292   29.8590 C   0  0  0  0  0  0  0  0  0  0  0  0
   -1.5172  -11.0078   30.0717 C   0  0  0  0  0  0  0  0  0  0  0  0
   -2.6349  -11.9241   29.1296 C   0  0  0  0  0  0  0  0  0  0  0  0
   -3.0997  -11.8714   27.7488 C   0  0  0  0  0  0  0  0  0  0  0  0
   -7.4936  -14.5799   25.6784 C   0  0  0  0  0  0  0  0  0  0  0  0
   -7.2927  -15.1289   24.6927 O   0  0  0  0  0  0  0  0  0  0  0  0
   -8.7670  -15.7525   26.8190 C   0  0  0  0  0  0  0  0  0  0  0  0
   -8.8789  -17.7867   27.5450 C   0  0  0  0  0  0  0  0  0  0  0  0
   -9.2907  -19.7418   28.2332 C   0  0  0  0  0  0  0  0  0  0  0  0
   -9.9702  -21.0503   27.7233 C   0  0  0  0  0  0  0  0  0  0  0  0
  -10.3662  -22.4425   28.0192 N   0  0  0  0  0  0  0  0  0  0  0  0
  -11.3721  -22.4821   28.7925 C   0  0  0  0  0  0  0  0  0  0  0  0
  -11.4518  -21.5624   29.6824 N   0  0  0  0  0  0  0  0  0  0  0  0
  -10.5784  -20.4823   29.3603 C   0  0  0  0  0  0  0  0  0  0  0  0
   -7.4537   -9.5654   26.0950 H   0  0  0  0  0  0  0  0  0  0  0  0
   -6.5079  -10.4400   26.2215 H   0  0  0  0  0  0  0  0  0  0  0  0
   -8.3617  -11.0543   25.9498 H   0  0  0  0  0  0  0  0  0  0  0  0
   -6.0327  -11.0892   24.9070 H   0  0  0  0  0  0  0  0  0  0  0  0
   -6.8108  -11.7128   24.0950 H   0  0  0  0  0  0  0  0  0  0  0  0
   -4.4951  -11.5540   24.1321 H   0  0  0  0  0  0  0  0  0  0  0  0
   -4.7992  -13.2116   23.8559 H   0  0  0  0  0  0  0  0  0  0  0  0
   -1.8342  -13.5269   25.1674 H   0  0  0  0  0  0  0  0  0  0  0  0
   -2.0251  -11.0727   25.5617 H   0  0  0  0  0  0  0  0  0  0  0  0
   -0.5817   -9.0617   28.3120 H   0  0  0  0  0  0  0  0  0  0  0  0
   -0.3814   -9.1863   30.4752 H   0  0  0  0  0  0  0  0  0  0  0  0
   -1.0190  -11.5316   30.8865 H   0  0  0  0  0  0  0  0  0  0  0  0
   -3.5976  -11.9076   29.5684 H   0  0  0  0  0  0  0  0  0  0  0  0
   -9.5371  -15.0482   27.1238 H   0  0  0  0  0  0  0  0  0  0  0  0
   -9.3029  -16.0819   25.9131 H   0  0  0  0  0  0  0  0  0  0  0  0
   -8.3592  -17.5676   28.4317 H   0  0  0  0  0  0  0  0  0  0  0  0
   -9.8840  -17.6345   27.1984 H   0  0  0  0  0  0  0  0  0  0  0  0
  -10.6736  -21.0027   26.8497 H   0  0  0  0  0  0  0  0  0  0  0  0
  -12.0736  -23.2579   28.6200 H   0  0  0  0  0  0  0  0  0  0  0  0
  -11.1295  -19.7656   29.8845 H   0  0  0  0  0  0  0  0  0  0  0  0
  1  2  1  0
  2  3  1  0
  3  4  1  0
  4  5  1  0
  5  6  2  0
  6  7  1  0
  7  8  1  0
  8  9  2  0
  9 10  1  0
 10 11  2  0
 11 12  1  0
 12 13  2  0
  3 14  1  0
 14 15  2  0
 14 16  1  0
 16 17  1  0
 17 18  1  0
 18 19  2  0
 19 20  1  0
 20 21  2  0
 21 22  1  0
 22 23  2  0
 13  5  1  0
 23 18  1  0
 13  8  1  0
  1 24  1  0
  1 25  1  0
  1 26  1  0
  2 27  1  0
  2 28  1  0
  4 29  1  0
  4 30  1  0
  6 31  1  0
  7 32  1  0
  9 33  1  0
 10 34  1  0
 11 35  1  0
 12 36  1  0
 16 37  1  0
 16 38  1  0
 17 39  1  0
 17 40  1  0
 19 41  1  0
 21 42  1  0
 23 43  1  0
M  END
>  <Energy>  (1303) 
1593.534078251909

>  <compound_id>  (1303) 
75254

>  <target_id>  (1303) 
1

>  <reference_id>  (1303) 
40

>  <inspiration_ids>  (1303) 
[40, 54]

>  <energy_score>  (1303) 
1568.4535834004314

>  <distance_score>  (1303) 
5.62494276574022

>  <path>  (1303) 
/opt/xchem-fragalysis-2/maxwin/BulkDock/SCRATCH/511017/C75254-P40/C75254-P40.minimised.mol

>  <scratch_subdir>  (1303) 
/opt/xchem-fragalysis-2/maxwin/BulkDock/SCRATCH/511017/C75254-P40

>  <fragmenstein_runtime>  (1303) 
16.307988166809082

>  <fragmenstein_outcome>  (1303) 
too moved

>  <fragmenstein_mode>  (1303) 
expansion

>  <fragmenstein_error>  (1303) 


$$$$
C75254-P54
     RDKit          3D

 43 45  0  0  0  0  0  0  0  0999 V2000
   -3.2990  -14.2675   26.4361 C   0  0  0  0  0  0  0  0  0  0  0  0
   -4.1009  -13.6654   28.0910 C   0  0  0  0  0  0  0  0  0  0  0  0
   -5.5216  -13.9871   27.5420 N   0  0  0  0  0  0  0  0  0  0  0  0
   -5.9243  -12.2419   28.2534 C   0  0  0  0  0  0  0  0  0  0  0  0
   -5.2252  -10.4853   27.8713 C   0  0  0  0  0  0  0  0  0  0  0  0
   -4.1663  -10.0556   27.0497 C   0  0  0  0  0  0  0  0  0  0  0  0
   -3.3344   -9.0331   27.4797 N   0  0  0  0  0  0  0  0  0  0  0  0
   -4.0316   -8.2103   28.3564 C   0  0  0  0  0  0  0  0  0  0  0  0
   -3.8298   -6.8212   28.8800 C   0  0  0  0  0  0  0  0  0  0  0  0
   -4.9247   -6.1502   29.4720 C   0  0  0  0  0  0  0  0  0  0  0  0
   -6.1744   -6.7916   29.6341 C   0  0  0  0  0  0  0  0  0  0  0  0
   -6.4325   -8.1543   29.2182 C   0  0  0  0  0  0  0  0  0  0  0  0
   -5.4060   -9.0313   28.5296 C   0  0  0  0  0  0  0  0  0  0  0  0
   -5.9266  -15.3527   27.9800 C   0  0  0  0  0  0  0  0  0  0  0  0
   -6.5642  -15.7392   28.9999 O   0  0  0  0  0  0  0  0  0  0  0  0
   -5.0996  -16.5647   26.6355 C   0  0  0  0  0  0  0  0  0  0  0  0
   -5.5732  -18.4097   26.2442 C   0  0  0  0  0  0  0  0  0  0  0  0
   -5.7010  -19.8325   27.1974 C   0  0  0  0  0  0  0  0  0  0  0  0
   -6.9909  -20.1895   27.4185 C   0  0  0  0  0  0  0  0  0  0  0  0
   -7.6163  -21.1578   28.0622 N   0  0  0  0  0  0  0  0  0  0  0  0
   -6.8359  -21.8607   28.8741 C   0  0  0  0  0  0  0  0  0  0  0  0
   -5.5903  -21.7866   28.6131 N   0  0  0  0  0  0  0  0  0  0  0  0
   -5.0517  -20.8967   27.5873 C   0  0  0  0  0  0  0  0  0  0  0  0
   -2.4655  -14.9656   26.3017 H   0  0  0  0  0  0  0  0  0  0  0  0
   -2.7208  -13.4353   25.9928 H   0  0  0  0  0  0  0  0  0  0  0  0
   -3.8989  -14.8767   25.8569 H   0  0  0  0  0  0  0  0  0  0  0  0
   -4.8099  -13.8726   28.8385 H   0  0  0  0  0  0  0  0  0  0  0  0
   -3.5869  -12.7021   28.1284 H   0  0  0  0  0  0  0  0  0  0  0  0
   -6.4624  -12.2515   29.1798 H   0  0  0  0  0  0  0  0  0  0  0  0
   -6.6666  -12.0280   27.4581 H   0  0  0  0  0  0  0  0  0  0  0  0
   -4.0580  -10.1712   25.9975 H   0  0  0  0  0  0  0  0  0  0  0  0
   -2.4777   -8.7756   27.0083 H   0  0  0  0  0  0  0  0  0  0  0  0
   -2.8807   -6.3173   28.7373 H   0  0  0  0  0  0  0  0  0  0  0  0
   -4.7939   -5.1325   29.8302 H   0  0  0  0  0  0  0  0  0  0  0  0
   -6.9851   -6.2499   30.1207 H   0  0  0  0  0  0  0  0  0  0  0  0
   -7.4140   -8.5400   29.4623 H   0  0  0  0  0  0  0  0  0  0  0  0
   -4.0235  -16.4260   26.5071 H   0  0  0  0  0  0  0  0  0  0  0  0
   -5.4530  -16.1406   25.8559 H   0  0  0  0  0  0  0  0  0  0  0  0
   -6.5902  -18.2507   26.0509 H   0  0  0  0  0  0  0  0  0  0  0  0
   -5.0303  -18.6854   25.3167 H   0  0  0  0  0  0  0  0  0  0  0  0
   -7.6636  -19.4674   27.0586 H   0  0  0  0  0  0  0  0  0  0  0  0
   -7.2729  -22.6008   29.5302 H   0  0  0  0  0  0  0  0  0  0  0  0
   -4.0751  -21.1959   27.2553 H   0  0  0  0  0  0  0  0  0  0  0  0
  1  2  1  0
  2  3  1  0
  3  4  1  0
  4  5  1  0
  5  6  2  0
  6  7  1  0
  7  8  1  0
  8  9  2  0
  9 10  1  0
 10 11  2  0
 11 12  1  0
 12 13  2  0
  3 14  1  0
 14 15  2  0
 14 16  1  0
 16 17  1  0
 17 18  1  0
 18 19  2  0
 19 20  1  0
 20 21  2  0
 21 22  1  0
 22 23  2  0
 13  5  1  0
 23 18  1  0
 13  8  1  0
  1 24  1  0
  1 25  1  0
  1 26  1  0
  2 27  1  0
  2 28  1  0
  4 29  1  0
  4 30  1  0
  6 31  1  0
  7 32  1  0
  9 33  1  0
 10 34  1  0
 11 35  1  0
 12 36  1  0
 16 37  1  0
 16 38  1  0
 17 39  1  0
 17 40  1  0
 19 41  1  0
 21 42  1  0
 23 43  1  0
M  END
>  <Energy>  (1304) 
558.61168965798754

>  <compound_id>  (1304) 
75254

>  <target_id>  (1304) 
1

>  <reference_id>  (1304) 
54

>  <inspiration_ids>  (1304) 
[40, 54]

>  <energy_score>  (1304) 
533.5311948065199

>  <distance_score>  (1304) 
6.282280858512108

>  <path>  (1304) 
/opt/xchem-fragalysis-2/maxwin/BulkDock/SCRATCH/511017/C75254-P54/C75254-P54.minimised.mol

>  <scratch_subdir>  (1304) 
/opt/xchem-fragalysis-2/maxwin/BulkDock/SCRATCH/511017/C75254-P54

>  <fragmenstein_runtime>  (1304) 
20.74693727493286

>  <fragmenstein_outcome>  (1304) 
too moved

>  <fragmenstein_mode>  (1304) 
expansion

>  <fragmenstein_error>  (1304) 


$$$$
C75255-P40
     RDKit          3D

 38 40  0  0  0  0  0  0  0  0999 V2000
   -6.6440  -12.7203   26.5176 C   0  0  0  0  0  0  0  0  0  0  0  0
   -6.8144  -13.0322   27.9469 C   0  0  0  0  0  0  0  0  0  0  0  0
   -5.2914  -12.0876   28.9498 N   0  0  0  0  0  0  0  0  0  0  0  0
   -3.2917  -11.7965   29.0741 C   0  0  0  0  0  0  0  0  0  0  0  0
   -1.8055  -10.6904   29.9441 C   0  0  0  0  0  0  0  0  0  0  0  0
   -1.7867   -9.7457   31.3273 C   0  0  0  0  0  0  0  0  0  0  0  0
   -0.9843   -8.7701   31.9879 C   0  0  0  0  0  0  0  0  0  0  0  0
   -0.1263   -8.1808   31.1130 C   0  0  0  0  0  0  0  0  0  0  0  0
    0.6318   -6.9601   31.1480 C   0  0  0  0  0  0  0  0  0  0  0  0
    0.9469   -6.7237   29.8177 C   0  0  0  0  0  0  0  0  0  0  0  0
   -0.0789   -7.4384   29.2127 N   0  0  0  0  0  0  0  0  0  0  0  0
   -1.3691   -6.7608   29.3618 C   0  0  0  0  0  0  0  0  0  0  0  0
   -0.1199   -8.6956   29.7920 C   0  0  0  0  0  0  0  0  0  0  0  0
   -0.7681   -9.9585   29.3172 C   0  0  0  0  0  0  0  0  0  0  0  0
   -8.3084  -14.1110   27.6849 C   0  0  0  0  0  0  0  0  0  0  0  0
   -8.2867  -15.4963   27.4932 C   0  0  0  0  0  0  0  0  0  0  0  0
   -8.9974  -16.3113   26.6926 N   0  0  0  0  0  0  0  0  0  0  0  0
   -9.9100  -15.7406   25.9957 C   0  0  0  0  0  0  0  0  0  0  0  0
  -10.4351  -14.6229   26.3904 N   0  0  0  0  0  0  0  0  0  0  0  0
   -9.5467  -13.8382   27.0716 C   0  0  0  0  0  0  0  0  0  0  0  0
   -6.7413  -13.6176   25.9629 H   0  0  0  0  0  0  0  0  0  0  0  0
   -5.8229  -12.0645   26.5011 H   0  0  0  0  0  0  0  0  0  0  0  0
   -7.2635  -12.0016   26.0077 H   0  0  0  0  0  0  0  0  0  0  0  0
   -6.6738  -13.9253   28.6203 H   0  0  0  0  0  0  0  0  0  0  0  0
   -5.2997  -12.9294   29.5498 H   0  0  0  0  0  0  0  0  0  0  0  0
   -2.8222  -12.7344   29.3191 H   0  0  0  0  0  0  0  0  0  0  0  0
   -3.0117  -11.7601   28.0150 H   0  0  0  0  0  0  0  0  0  0  0  0
   -2.7628   -9.5209   31.7678 H   0  0  0  0  0  0  0  0  0  0  0  0
   -1.2621   -8.3278   32.9386 H   0  0  0  0  0  0  0  0  0  0  0  0
    0.8702   -6.3433   32.0053 H   0  0  0  0  0  0  0  0  0  0  0  0
    1.4552   -5.9050   29.3224 H   0  0  0  0  0  0  0  0  0  0  0  0
   -1.0898   -5.6982   29.2846 H   0  0  0  0  0  0  0  0  0  0  0  0
   -1.8308   -6.9196   30.3389 H   0  0  0  0  0  0  0  0  0  0  0  0
   -2.0701   -7.1397   28.6262 H   0  0  0  0  0  0  0  0  0  0  0  0
   -0.7196  -10.1710   28.2951 H   0  0  0  0  0  0  0  0  0  0  0  0
   -7.6581  -16.1522   28.0838 H   0  0  0  0  0  0  0  0  0  0  0  0
  -10.2129  -16.1944   25.0645 H   0  0  0  0  0  0  0  0  0  0  0  0
   -9.9181  -12.8847   26.7751 H   0  0  0  0  0  0  0  0  0  0  0  0
  1  2  1  0
  2  3  1  0
  3  4  1  0
  4  5  1  0
  5  6  2  0
  6  7  1  0
  7  8  2  0
  8  9  1  0
  9 10  2  0
 10 11  1  0
 11 12  1  0
 11 13  1  0
 13 14  2  0
  2 15  1  0
 15 16  2  0
 16 17  1  0
 17 18  2  0
 18 19  1  0
 19 20  2  0
 14  5  1  0
 20 15  1  0
 13  8  1  0
  1 21  1  0
  1 22  1  0
  1 23  1  0
  2 24  1  0
  3 25  1  0
  4 26  1  0
  4 27  1  0
  6 28  1  0
  7 29  1  0
  9 30  1  0
 10 31  1  0
 12 32  1  0
 12 33  1  0
 12 34  1  0
 14 35  1  0
 16 36  1  0
 18 37  1  0
 20 38  1  0
M  END
>  <Energy>  (1305) 
686.77877618371656

>  <compound_id>  (1305) 
75255

>  <target_id>  (1305) 
1

>  <reference_id>  (1305) 
40

>  <inspiration_ids>  (1305) 
[40, 54]

>  <energy_score>  (1305) 
653.6588448139914

>  <distance_score>  (1305) 
7.234810063586388

>  <path>  (1305) 
/opt/xchem-fragalysis-2/maxwin/BulkDock/SCRATCH/511017/C75255-P40/C75255-P40.minimised.mol

>  <scratch_subdir>  (1305) 
/opt/xchem-fragalysis-2/maxwin/BulkDock/SCRATCH/511017/C75255-P40

>  <fragmenstein_runtime>  (1305) 
14.62827467918396

>  <fragmenstein_outcome>  (1305) 
too moved

>  <fragmenstein_mode>  (1305) 
expansion

>  <fragmenstein_error>  (1305) 


$$$$
C75255-P54
     RDKit          3D

 38 40  0  0  0  0  0  0  0  0999 V2000
  -10.9426  -20.2363   27.2585 C   0  0  0  0  0  0  0  0  0  0  0  0
   -9.7079  -19.4182   28.0262 C   0  0  0  0  0  0  0  0  0  0  0  0
   -8.8515  -17.6171   27.6765 N   0  0  0  0  0  0  0  0  0  0  0  0
   -8.4963  -16.2549   26.6307 C   0  0  0  0  0  0  0  0  0  0  0  0
   -7.8621  -14.4895   26.6139 C   0  0  0  0  0  0  0  0  0  0  0  0
   -8.6580  -13.6365   25.8610 C   0  0  0  0  0  0  0  0  0  0  0  0
   -8.2159  -12.3314   26.0283 C   0  0  0  0  0  0  0  0  0  0  0  0
   -7.2018  -11.6700   26.9377 C   0  0  0  0  0  0  0  0  0  0  0  0
   -6.8502  -11.4080   28.5865 C   0  0  0  0  0  0  0  0  0  0  0  0
   -5.9336  -10.3532   28.5654 C   0  0  0  0  0  0  0  0  0  0  0  0
   -5.2511  -11.0082   27.7207 N   0  0  0  0  0  0  0  0  0  0  0  0
   -4.1935  -10.2057   27.0915 C   0  0  0  0  0  0  0  0  0  0  0  0
   -6.2190  -12.2992   27.5019 C   0  0  0  0  0  0  0  0  0  0  0  0
   -6.3782  -13.7447   27.3462 C   0  0  0  0  0  0  0  0  0  0  0  0
  -10.4336  -19.9605   29.4617 C   0  0  0  0  0  0  0  0  0  0  0  0
  -10.8312  -19.3305   30.6098 C   0  0  0  0  0  0  0  0  0  0  0  0
  -11.3946  -19.9133   31.6957 N   0  0  0  0  0  0  0  0  0  0  0  0
  -11.4834  -21.2419   31.6808 C   0  0  0  0  0  0  0  0  0  0  0  0
  -11.0951  -22.0299   30.6825 N   0  0  0  0  0  0  0  0  0  0  0  0
  -10.5818  -21.3728   29.6237 C   0  0  0  0  0  0  0  0  0  0  0  0
  -11.8562  -20.2129   27.8495 H   0  0  0  0  0  0  0  0  0  0  0  0
  -11.2334  -19.9245   26.2711 H   0  0  0  0  0  0  0  0  0  0  0  0
  -10.7160  -21.3053   27.1420 H   0  0  0  0  0  0  0  0  0  0  0  0
   -8.8936  -20.1556   28.0647 H   0  0  0  0  0  0  0  0  0  0  0  0
   -7.7897  -17.7415   27.6453 H   0  0  0  0  0  0  0  0  0  0  0  0
   -8.1334  -15.9843   27.5821 H   0  0  0  0  0  0  0  0  0  0  0  0
   -9.3993  -16.1030   26.0307 H   0  0  0  0  0  0  0  0  0  0  0  0
   -9.4324  -13.9288   25.1709 H   0  0  0  0  0  0  0  0  0  0  0  0
   -8.5072  -11.7314   25.1606 H   0  0  0  0  0  0  0  0  0  0  0  0
   -7.5381  -11.6415   29.3936 H   0  0  0  0  0  0  0  0  0  0  0  0
   -5.8767   -9.3278   28.9179 H   0  0  0  0  0  0  0  0  0  0  0  0
   -4.0423   -9.2723   27.6131 H   0  0  0  0  0  0  0  0  0  0  0  0
   -4.3418  -10.0124   26.0408 H   0  0  0  0  0  0  0  0  0  0  0  0
   -3.2790  -10.7345   27.2291 H   0  0  0  0  0  0  0  0  0  0  0  0
   -5.6779  -14.3738   27.9153 H   0  0  0  0  0  0  0  0  0  0  0  0
  -10.4960  -18.3483   30.8700 H   0  0  0  0  0  0  0  0  0  0  0  0
  -11.8529  -21.7068   32.5804 H   0  0  0  0  0  0  0  0  0  0  0  0
  -10.2001  -22.0696   28.8797 H   0  0  0  0  0  0  0  0  0  0  0  0
  1  2  1  0
  2  3  1  0
  3  4  1  0
  4  5  1  0
  5  6  2  0
  6  7  1  0
  7  8  2  0
  8  9  1  0
  9 10  2  0
 10 11  1  0
 11 12  1  0
 11 13  1  0
 13 14  2  0
  2 15  1  0
 15 16  2  0
 16 17  1  0
 17 18  2  0
 18 19  1  0
 19 20  2  0
 14  5  1  0
 20 15  1  0
 13  8  1  0
  1 21  1  0
  1 22  1  0
  1 23  1  0
  2 24  1  0
  3 25  1  0
  4 26  1  0
  4 27  1  0
  6 28  1  0
  7 29  1  0
  9 30  1  0
 10 31  1  0
 12 32  1  0
 12 33  1  0
 12 34  1  0
 14 35  1  0
 16 36  1  0
 18 37  1  0
 20 38  1  0
M  END
>  <Energy>  (1306) 
660.97533087841816

>  <compound_id>  (1306) 
75255

>  <target_id>  (1306) 
1

>  <reference_id>  (1306) 
54

>  <inspiration_ids>  (1306) 
[40, 54]

>  <energy_score>  (1306) 
627.8553995087049

>  <distance_score>  (1306) 
8.715808364060264

>  <path>  (1306) 
/opt/xchem-fragalysis-2/maxwin/BulkDock/SCRATCH/511017/C75255-P54/C75255-P54.minimised.mol

>  <scratch_subdir>  (1306) 
/opt/xchem-fragalysis-2/maxwin/BulkDock/SCRATCH/511017/C75255-P54

>  <fragmenstein_runtime>  (1306) 
10.557316303253174

>  <fragmenstein_outcome>  (1306) 
too moved

>  <fragmenstein_mode>  (1306) 
expansion

>  <fragmenstein_error>  (1306) 


$$$$
C75256-P40
     RDKit          3D

 28 30  0  0  0  0  0  0  0  0999 V2000
   -5.0807  -12.2164   29.2077 O   0  0  0  0  0  0  0  0  0  0  0  0
   -4.7662  -12.0461   28.1372 C   0  0  0  0  0  0  0  0  0  0  0  0
   -6.2058  -12.5218   26.9620 N   0  0  0  0  0  0  0  0  0  0  0  0
   -7.7914  -13.2921   27.2660 C   0  0  0  0  0  0  0  0  0  0  0  0
   -7.7202  -14.3069   28.1165 C   0  0  0  0  0  0  0  0  0  0  0  0
   -8.2600  -15.5451   27.7661 N   0  0  0  0  0  0  0  0  0  0  0  0
   -9.2614  -15.6748   26.9024 C   0  0  0  0  0  0  0  0  0  0  0  0
   -9.9650  -14.6590   26.6262 N   0  0  0  0  0  0  0  0  0  0  0  0
   -9.2440  -13.5567   26.9400 C   0  0  0  0  0  0  0  0  0  0  0  0
   -2.9636  -11.6125   28.1267 C   0  0  0  0  0  0  0  0  0  0  0  0
   -2.4543  -11.6803   29.3771 C   0  0  0  0  0  0  0  0  0  0  0  0
   -1.3001  -10.8056   30.2818 C   0  0  0  0  0  0  0  0  0  0  0  0
   -0.7741   -9.6245   30.0207 C   0  0  0  0  0  0  0  0  0  0  0  0
   -0.3279   -8.4391   30.6435 C   0  0  0  0  0  0  0  0  0  0  0  0
    0.0545   -7.6567   29.6110 C   0  0  0  0  0  0  0  0  0  0  0  0
   -0.3300   -8.3509   28.5095 N   0  0  0  0  0  0  0  0  0  0  0  0
   -0.7625   -9.7603   28.6880 C   0  0  0  0  0  0  0  0  0  0  0  0
   -1.7675  -10.9934   27.7638 C   0  0  0  0  0  0  0  0  0  0  0  0
   -5.9395  -12.2773   26.0359 H   0  0  0  0  0  0  0  0  0  0  0  0
   -6.9089  -14.3544   28.8338 H   0  0  0  0  0  0  0  0  0  0  0  0
   -9.6712  -16.6462   26.7150 H   0  0  0  0  0  0  0  0  0  0  0  0
   -9.9101  -12.7895   26.5126 H   0  0  0  0  0  0  0  0  0  0  0  0
   -2.5899  -12.7212   29.5647 H   0  0  0  0  0  0  0  0  0  0  0  0
   -0.9154  -11.1889   31.1871 H   0  0  0  0  0  0  0  0  0  0  0  0
   -0.3134   -8.2018   31.6997 H   0  0  0  0  0  0  0  0  0  0  0  0
    0.4262   -6.6405   29.5660 H   0  0  0  0  0  0  0  0  0  0  0  0
   -0.4989   -7.8741   27.6489 H   0  0  0  0  0  0  0  0  0  0  0  0
   -1.9970  -10.8055   26.7077 H   0  0  0  0  0  0  0  0  0  0  0  0
  1  2  2  0
  2  3  1  0
  3  4  1  0
  4  5  2  0
  5  6  1  0
  6  7  2  0
  7  8  1  0
  8  9  2  0
  2 10  1  0
 10 11  2  0
 11 12  1  0
 12 13  2  0
 13 14  1  0
 14 15  2  0
 15 16  1  0
 16 17  1  0
 17 18  2  0
  9  4  1  0
 18 10  1  0
 17 13  1  0
  3 19  1  0
  5 20  1  0
  7 21  1  0
  9 22  1  0
 11 23  1  0
 12 24  1  0
 14 25  1  0
 15 26  1  0
 16 27  1  0
 18 28  1  0
M  END
>  <Energy>  (1307) 
570.07558760568043

>  <compound_id>  (1307) 
75256

>  <target_id>  (1307) 
1

>  <reference_id>  (1307) 
40

>  <inspiration_ids>  (1307) 
[40, 54]

>  <energy_score>  (1307) 
520.1278207329706

>  <distance_score>  (1307) 
7.8933606757712225

>  <path>  (1307) 
/opt/xchem-fragalysis-2/maxwin/BulkDock/SCRATCH/511017/C75256-P40/C75256-P40.minimised.mol

>  <scratch_subdir>  (1307) 
/opt/xchem-fragalysis-2/maxwin/BulkDock/SCRATCH/511017/C75256-P40

>  <fragmenstein_runtime>  (1307) 
10.48401665687561

>  <fragmenstein_outcome>  (1307) 
too moved

>  <fragmenstein_mode>  (1307) 
expansion

>  <fragmenstein_error>  (1307) 


$$$$
C75256-P54
     RDKit          3D

 28 30  0  0  0  0  0  0  0  0999 V2000
   -5.5451  -14.2252   28.0333 O   0  0  0  0  0  0  0  0  0  0  0  0
   -6.4759  -13.6311   27.4945 C   0  0  0  0  0  0  0  0  0  0  0  0
   -8.0700  -14.4665   26.8221 N   0  0  0  0  0  0  0  0  0  0  0  0
   -8.7277  -16.3185   26.9560 C   0  0  0  0  0  0  0  0  0  0  0  0
   -8.8258  -17.5665   27.6543 C   0  0  0  0  0  0  0  0  0  0  0  0
   -9.7507  -18.9026   28.6371 N   0  0  0  0  0  0  0  0  0  0  0  0
  -11.0637  -18.9079   28.9856 C   0  0  0  0  0  0  0  0  0  0  0  0
  -11.6513  -17.6332   28.5997 N   0  0  0  0  0  0  0  0  0  0  0  0
  -10.3958  -16.4711   27.8761 C   0  0  0  0  0  0  0  0  0  0  0  0
   -6.2063  -11.6963   27.6491 C   0  0  0  0  0  0  0  0  0  0  0  0
   -6.8264  -11.1810   28.8503 C   0  0  0  0  0  0  0  0  0  0  0  0
   -6.9579   -9.4856   29.4339 C   0  0  0  0  0  0  0  0  0  0  0  0
   -6.1566   -8.4250   29.0462 C   0  0  0  0  0  0  0  0  0  0  0  0
   -5.9411   -6.9859   29.4139 C   0  0  0  0  0  0  0  0  0  0  0  0
   -4.6091   -6.6416   29.1307 C   0  0  0  0  0  0  0  0  0  0  0  0
   -3.9767   -7.8029   28.5487 N   0  0  0  0  0  0  0  0  0  0  0  0
   -5.0918   -9.0318   28.3587 C   0  0  0  0  0  0  0  0  0  0  0  0
   -5.1482  -10.4539   27.6173 C   0  0  0  0  0  0  0  0  0  0  0  0
   -8.6442  -13.7749   26.3496 H   0  0  0  0  0  0  0  0  0  0  0  0
   -7.7969  -17.8983   27.5037 H   0  0  0  0  0  0  0  0  0  0  0  0
  -11.5895  -19.6974   29.4736 H   0  0  0  0  0  0  0  0  0  0  0  0
  -10.7351  -15.8973   28.6658 H   0  0  0  0  0  0  0  0  0  0  0  0
   -7.4799  -11.7959   29.4692 H   0  0  0  0  0  0  0  0  0  0  0  0
   -7.8175   -9.0938   29.9723 H   0  0  0  0  0  0  0  0  0  0  0  0
   -6.6517   -6.3594   29.9379 H   0  0  0  0  0  0  0  0  0  0  0  0
   -4.0316   -5.7387   29.2783 H   0  0  0  0  0  0  0  0  0  0  0  0
   -3.0761   -7.8796   28.0907 H   0  0  0  0  0  0  0  0  0  0  0  0
   -4.1667  -10.5444   27.1577 H   0  0  0  0  0  0  0  0  0  0  0  0
  1  2  2  0
  2  3  1  0
  3  4  1  0
  4  5  2  0
  5  6  1  0
  6  7  2  0
  7  8  1  0
  8  9  2  0
  2 10  1  0
 10 11  2  0
 11 12  1  0
 12 13  2  0
 13 14  1  0
 14 15  2  0
 15 16  1  0
 16 17  1  0
 17 18  2  0
  9  4  1  0
 18 10  1  0
 17 13  1  0
  3 19  1  0
  5 20  1  0
  7 21  1  0
  9 22  1  0
 11 23  1  0
 12 24  1  0
 14 25  1  0
 15 26  1  0
 16 27  1  0
 18 28  1  0
M  END
>  <Energy>  (1308) 
806.8136021560482

>  <compound_id>  (1308) 
75256

>  <target_id>  (1308) 
1

>  <reference_id>  (1308) 
54

>  <inspiration_ids>  (1308) 
[40, 54]

>  <energy_score>  (1308) 
756.8658352833461

>  <distance_score>  (1308) 
7.517691157507186

>  <path>  (1308) 
/opt/xchem-fragalysis-2/maxwin/BulkDock/SCRATCH/511017/C75256-P54/C75256-P54.minimised.mol

>  <scratch_subdir>  (1308) 
/opt/xchem-fragalysis-2/maxwin/BulkDock/SCRATCH/511017/C75256-P54

>  <fragmenstein_runtime>  (1308) 
10.036021709442139

>  <fragmenstein_outcome>  (1308) 
too moved

>  <fragmenstein_mode>  (1308) 
expansion

>  <fragmenstein_error>  (1308) 


$$$$
C75257-P40
     RDKit          3D

 34 36  0  0  0  0  0  0  0  0999 V2000
   -4.7547  -11.9037   27.5029 O   0  0  0  0  0  0  0  0  0  0  0  0
   -4.4095  -12.1838   28.5865 C   0  0  0  0  0  0  0  0  0  0  0  0
   -5.6483  -13.2979   29.5242 N   0  0  0  0  0  0  0  0  0  0  0  0
   -6.9099  -13.9652   29.0762 C   0  0  0  0  0  0  0  0  0  0  0  0
   -7.6367  -13.7225   27.8604 C   0  0  0  0  0  0  0  0  0  0  0  0
   -8.6511  -14.3484   27.1407 N   0  0  0  0  0  0  0  0  0  0  0  0
   -8.6139  -15.6299   27.2379 C   0  0  0  0  0  0  0  0  0  0  0  0
   -7.6910  -16.1819   28.0572 N   0  0  0  0  0  0  0  0  0  0  0  0
   -6.7298  -15.2523   28.8256 C   0  0  0  0  0  0  0  0  0  0  0  0
   -2.7743  -11.5941   28.8316 C   0  0  0  0  0  0  0  0  0  0  0  0
   -2.1083  -11.3083   29.8416 C   0  0  0  0  0  0  0  0  0  0  0  0
   -1.1671  -10.3286   30.6823 C   0  0  0  0  0  0  0  0  0  0  0  0
   -0.5014   -9.3524   30.0995 C   0  0  0  0  0  0  0  0  0  0  0  0
    0.3890   -8.2927   30.3735 C   0  0  0  0  0  0  0  0  0  0  0  0
    0.7871   -7.9195   29.1073 C   0  0  0  0  0  0  0  0  0  0  0  0
   -0.5052   -8.0633   28.6490 N   0  0  0  0  0  0  0  0  0  0  0  0
   -1.3578   -6.9483   29.3630 C   0  0  0  0  0  0  0  0  0  0  0  0
   -0.4946   -5.5945   29.6706 C   0  0  0  0  0  0  0  0  0  0  0  0
    0.4209   -5.3398   28.7027 F   0  0  0  0  0  0  0  0  0  0  0  0
    0.1899   -5.7180   30.8403 F   0  0  0  0  0  0  0  0  0  0  0  0
   -0.6824   -9.5883   28.7956 C   0  0  0  0  0  0  0  0  0  0  0  0
   -1.7227  -10.9160   28.1824 C   0  0  0  0  0  0  0  0  0  0  0  0
   -5.2485  -13.5547   30.3713 H   0  0  0  0  0  0  0  0  0  0  0  0
   -7.1610  -13.0194   27.1640 H   0  0  0  0  0  0  0  0  0  0  0  0
   -9.3062  -16.2410   26.6848 H   0  0  0  0  0  0  0  0  0  0  0  0
   -5.9064  -15.7737   29.3316 H   0  0  0  0  0  0  0  0  0  0  0  0
   -2.5409  -12.2174   30.1489 H   0  0  0  0  0  0  0  0  0  0  0  0
   -1.1466  -10.2755   31.7437 H   0  0  0  0  0  0  0  0  0  0  0  0
    0.6784   -7.9150   31.3444 H   0  0  0  0  0  0  0  0  0  0  0  0
    1.4837   -7.1765   28.7317 H   0  0  0  0  0  0  0  0  0  0  0  0
   -1.7642   -7.3144   30.3120 H   0  0  0  0  0  0  0  0  0  0  0  0
   -2.1893   -6.8762   28.6730 H   0  0  0  0  0  0  0  0  0  0  0  0
   -1.0491   -4.6665   29.7757 H   0  0  0  0  0  0  0  0  0  0  0  0
   -1.9345  -11.0092   27.1066 H   0  0  0  0  0  0  0  0  0  0  0  0
  1  2  2  0
  2  3  1  0
  3  4  1  0
  4  5  2  0
  5  6  1  0
  6  7  2  0
  7  8  1  0
  8  9  2  0
  2 10  1  0
 10 11  2  0
 11 12  1  0
 12 13  2  0
 13 14  1  0
 14 15  2  0
 15 16  1  0
 16 17  1  0
 17 18  1  0
 18 19  1  0
 18 20  1  0
 16 21  1  0
 21 22  2  0
  9  4  1  0
 22 10  1  0
 21 13  1  0
  3 23  1  0
  5 24  1  0
  7 25  1  0
  9 26  1  0
 11 27  1  0
 12 28  1  0
 14 29  1  0
 15 30  1  0
 17 31  1  0
 17 32  1  0
 18 33  1  0
 22 34  1  0
M  END
>  <Energy>  (1309) 
558.8814113391312

>  <compound_id>  (1309) 
75257

>  <target_id>  (1309) 
1

>  <reference_id>  (1309) 
40

>  <inspiration_ids>  (1309) 
[40, 54]

>  <energy_score>  (1309) 
500.5180347355499

>  <distance_score>  (1309) 
7.733319606194085

>  <path>  (1309) 
/opt/xchem-fragalysis-2/maxwin/BulkDock/SCRATCH/511017/C75257-P40/C75257-P40.minimised.mol

>  <scratch_subdir>  (1309) 
/opt/xchem-fragalysis-2/maxwin/BulkDock/SCRATCH/511017/C75257-P40

>  <fragmenstein_runtime>  (1309) 
17.59534192085266

>  <fragmenstein_outcome>  (1309) 
too moved

>  <fragmenstein_mode>  (1309) 
expansion

>  <fragmenstein_error>  (1309) 


$$$$
C75257-P54
     RDKit          3D

 34 36  0  0  0  0  0  0  0  0999 V2000
   -9.5593  -13.2190   25.5573 O   0  0  0  0  0  0  0  0  0  0  0  0
   -8.5321  -13.6389   26.0808 C   0  0  0  0  0  0  0  0  0  0  0  0
   -8.1778  -15.1898   26.7402 N   0  0  0  0  0  0  0  0  0  0  0  0
   -9.2605  -16.6275   27.0119 C   0  0  0  0  0  0  0  0  0  0  0  0
  -10.8241  -16.4934   27.9983 C   0  0  0  0  0  0  0  0  0  0  0  0
  -11.8103  -17.8284   28.6901 N   0  0  0  0  0  0  0  0  0  0  0  0
  -11.1746  -18.9990   29.0769 C   0  0  0  0  0  0  0  0  0  0  0  0
   -9.8683  -18.9400   28.8502 N   0  0  0  0  0  0  0  0  0  0  0  0
   -8.9880  -17.7571   27.7409 C   0  0  0  0  0  0  0  0  0  0  0  0
   -7.3205  -12.3426   26.3070 C   0  0  0  0  0  0  0  0  0  0  0  0
   -6.4796  -12.6346   27.2923 C   0  0  0  0  0  0  0  0  0  0  0  0
   -6.0913  -11.7207   28.2453 C   0  0  0  0  0  0  0  0  0  0  0  0
   -5.2070  -10.7040   27.8537 C   0  0  0  0  0  0  0  0  0  0  0  0
   -3.8656  -10.5807   27.3021 C   0  0  0  0  0  0  0  0  0  0  0  0
   -3.5204   -9.3098   27.2475 C   0  0  0  0  0  0  0  0  0  0  0  0
   -4.6403   -9.0362   28.0763 N   0  0  0  0  0  0  0  0  0  0  0  0
   -4.0874   -7.4016   28.7187 C   0  0  0  0  0  0  0  0  0  0  0  0
   -4.9197   -6.1737   29.1624 C   0  0  0  0  0  0  0  0  0  0  0  0
   -5.4722   -6.3135   30.3831 F   0  0  0  0  0  0  0  0  0  0  0  0
   -4.0160   -5.1526   29.3101 F   0  0  0  0  0  0  0  0  0  0  0  0
   -5.7021   -9.8533   26.9297 C   0  0  0  0  0  0  0  0  0  0  0  0
   -6.8604  -11.0255   26.1278 C   0  0  0  0  0  0  0  0  0  0  0  0
   -7.2175  -15.2339   27.0117 H   0  0  0  0  0  0  0  0  0  0  0  0
  -11.7217  -15.9411   27.9209 H   0  0  0  0  0  0  0  0  0  0  0  0
  -11.6641  -19.8043   29.5824 H   0  0  0  0  0  0  0  0  0  0  0  0
   -9.0609  -18.8703   27.2234 H   0  0  0  0  0  0  0  0  0  0  0  0
   -6.1721  -13.6379   27.5728 H   0  0  0  0  0  0  0  0  0  0  0  0
   -6.8955  -11.4145   28.9089 H   0  0  0  0  0  0  0  0  0  0  0  0
   -3.1015  -11.3397   27.3387 H   0  0  0  0  0  0  0  0  0  0  0  0
   -2.6423   -8.6964   27.1464 H   0  0  0  0  0  0  0  0  0  0  0  0
   -3.3164   -7.1335   28.0134 H   0  0  0  0  0  0  0  0  0  0  0  0
   -3.2666   -7.4438   29.4158 H   0  0  0  0  0  0  0  0  0  0  0  0
   -5.6636   -5.8115   28.4576 H   0  0  0  0  0  0  0  0  0  0  0  0
   -6.9037  -10.8667   25.0318 H   0  0  0  0  0  0  0  0  0  0  0  0
  1  2  2  0
  2  3  1  0
  3  4  1  0
  4  5  2  0
  5  6  1  0
  6  7  2  0
  7  8  1  0
  8  9  2  0
  2 10  1  0
 10 11  2  0
 11 12  1  0
 12 13  2  0
 13 14  1  0
 14 15  2  0
 15 16  1  0
 16 17  1  0
 17 18  1  0
 18 19  1  0
 18 20  1  0
 16 21  1  0
 21 22  2  0
  9  4  1  0
 22 10  1  0
 21 13  1  0
  3 23  1  0
  5 24  1  0
  7 25  1  0
  9 26  1  0
 11 27  1  0
 12 28  1  0
 14 29  1  0
 15 30  1  0
 17 31  1  0
 17 32  1  0
 18 33  1  0
 22 34  1  0
M  END
>  <Energy>  (1310) 
871.96288186923698

>  <compound_id>  (1310) 
75257

>  <target_id>  (1310) 
1

>  <reference_id>  (1310) 
54

>  <inspiration_ids>  (1310) 
[40, 54]

>  <energy_score>  (1310) 
813.5995052656638

>  <distance_score>  (1310) 
7.936927984481126

>  <path>  (1310) 
/opt/xchem-fragalysis-2/maxwin/BulkDock/SCRATCH/511017/C75257-P54/C75257-P54.minimised.mol

>  <scratch_subdir>  (1310) 
/opt/xchem-fragalysis-2/maxwin/BulkDock/SCRATCH/511017/C75257-P54

>  <fragmenstein_runtime>  (1310) 
13.192909717559814

>  <fragmenstein_outcome>  (1310) 
too moved

>  <fragmenstein_mode>  (1310) 
expansion

>  <fragmenstein_error>  (1310) 


$$$$
C75258-P40
     RDKit          3D

 29 31  0  0  0  0  0  0  0  0999 V2000
    0.3564  -10.7127   20.4565 N   0  0  0  0  0  0  0  0  0  0  0  0
    0.6611  -11.2445   21.4449 C   0  0  0  0  0  0  0  0  0  0  0  0
    1.0142  -11.9273   22.6542 C   0  0  0  0  0  0  0  0  0  0  0  0
    2.1895  -11.7797   23.3507 C   0  0  0  0  0  0  0  0  0  0  0  0
    2.1578  -12.7029   24.3593 N   0  0  0  0  0  0  0  0  0  0  0  0
    0.9894  -13.4424   24.3495 C   0  0  0  0  0  0  0  0  0  0  0  0
    0.4960  -14.5395   25.1546 C   0  0  0  0  0  0  0  0  0  0  0  0
   -0.7852  -15.1425   24.9028 C   0  0  0  0  0  0  0  0  0  0  0  0
   -1.3643  -16.3484   25.7746 C   0  0  0  0  0  0  0  0  0  0  0  0
   -1.0336  -16.2625   26.9037 O   0  0  0  0  0  0  0  0  0  0  0  0
   -2.2970  -17.4218   25.0525 N   0  0  0  0  0  0  0  0  0  0  0  0
   -3.0756  -18.5376   25.6115 C   0  0  0  0  0  0  0  0  0  0  0  0
   -3.6390  -19.6111   24.9119 C   0  0  0  0  0  0  0  0  0  0  0  0
   -4.2449  -20.7219   25.4542 N   0  0  0  0  0  0  0  0  0  0  0  0
   -4.3791  -20.7249   26.7763 C   0  0  0  0  0  0  0  0  0  0  0  0
   -4.0061  -19.7186   27.5615 N   0  0  0  0  0  0  0  0  0  0  0  0
   -3.3737  -18.6714   26.9551 C   0  0  0  0  0  0  0  0  0  0  0  0
   -1.5634  -14.4666   23.9740 C   0  0  0  0  0  0  0  0  0  0  0  0
   -1.1028  -13.3559   23.2168 C   0  0  0  0  0  0  0  0  0  0  0  0
    0.2152  -12.8781   23.3453 C   0  0  0  0  0  0  0  0  0  0  0  0
    3.0406  -11.1281   23.2110 H   0  0  0  0  0  0  0  0  0  0  0  0
    2.8844  -12.7849   25.0612 H   0  0  0  0  0  0  0  0  0  0  0  0
    1.1392  -14.9735   25.9187 H   0  0  0  0  0  0  0  0  0  0  0  0
   -2.3072  -17.2468   24.0539 H   0  0  0  0  0  0  0  0  0  0  0  0
   -3.5524  -19.6544   23.8282 H   0  0  0  0  0  0  0  0  0  0  0  0
   -4.8131  -21.6018   27.2340 H   0  0  0  0  0  0  0  0  0  0  0  0
   -3.0598  -17.8846   27.6285 H   0  0  0  0  0  0  0  0  0  0  0  0
   -2.5419  -14.8554   23.7071 H   0  0  0  0  0  0  0  0  0  0  0  0
   -1.7633  -12.9185   22.4696 H   0  0  0  0  0  0  0  0  0  0  0  0
  1  2  3  0
  2  3  1  0
  3  4  2  0
  4  5  1  0
  5  6  1  0
  6  7  2  0
  7  8  1  0
  8  9  1  0
  9 10  2  0
  9 11  1  0
 11 12  1  0
 12 13  2  0
 13 14  1  0
 14 15  2  0
 15 16  1  0
 16 17  2  0
  8 18  2  0
 18 19  1  0
 19 20  2  0
 20  3  1  0
 20  6  1  0
 17 12  1  0
  4 21  1  0
  5 22  1  0
  7 23  1  0
 11 24  1  0
 13 25  1  0
 15 26  1  0
 17 27  1  0
 18 28  1  0
 19 29  1  0
M  END
>  <Energy>  (1311) 
93.672633153800604

>  <compound_id>  (1311) 
75258

>  <target_id>  (1311) 
1

>  <reference_id>  (1311) 
40

>  <inspiration_ids>  (1311) 
[40, 54]

>  <energy_score>  (1311) 
25.611508800699994

>  <distance_score>  (1311) 
9.627395181963564

>  <path>  (1311) 
/opt/xchem-fragalysis-2/maxwin/BulkDock/SCRATCH/511017/C75258-P40/C75258-P40.minimised.mol

>  <scratch_subdir>  (1311) 
/opt/xchem-fragalysis-2/maxwin/BulkDock/SCRATCH/511017/C75258-P40

>  <fragmenstein_runtime>  (1311) 
8.603524684906006

>  <fragmenstein_outcome>  (1311) 
too moved

>  <fragmenstein_mode>  (1311) 
expansion

>  <fragmenstein_error>  (1311) 


$$$$
C75258-P54
     RDKit          3D

 29 31  0  0  0  0  0  0  0  0999 V2000
   -3.1342   -9.0671   27.1388 N   0  0  0  0  0  0  0  0  0  0  0  0
   -3.9492   -9.8876   27.2069 C   0  0  0  0  0  0  0  0  0  0  0  0
   -5.0928  -10.5670   27.6586 C   0  0  0  0  0  0  0  0  0  0  0  0
   -5.8185   -9.9421   28.5593 C   0  0  0  0  0  0  0  0  0  0  0  0
   -6.7510  -11.1799   28.7083 N   0  0  0  0  0  0  0  0  0  0  0  0
   -6.8644  -11.6904   27.2383 C   0  0  0  0  0  0  0  0  0  0  0  0
   -7.7516  -12.5870   26.5385 C   0  0  0  0  0  0  0  0  0  0  0  0
   -7.3748  -13.9714   26.7932 C   0  0  0  0  0  0  0  0  0  0  0  0
   -8.3954  -15.2237   26.3249 C   0  0  0  0  0  0  0  0  0  0  0  0
   -9.1882  -15.1472   25.3981 O   0  0  0  0  0  0  0  0  0  0  0  0
   -8.1789  -16.3740   27.4075 N   0  0  0  0  0  0  0  0  0  0  0  0
   -9.0521  -17.7912   27.7192 C   0  0  0  0  0  0  0  0  0  0  0  0
   -9.2391  -19.2911   27.4661 C   0  0  0  0  0  0  0  0  0  0  0  0
   -9.9486  -20.6578   27.9778 N   0  0  0  0  0  0  0  0  0  0  0  0
  -10.6081  -20.7215   29.1108 C   0  0  0  0  0  0  0  0  0  0  0  0
  -10.6125  -19.6578   29.8552 N   0  0  0  0  0  0  0  0  0  0  0  0
  -10.0553  -18.5094   29.0844 C   0  0  0  0  0  0  0  0  0  0  0  0
   -6.0217  -14.1706   27.6541 C   0  0  0  0  0  0  0  0  0  0  0  0
   -5.5610  -13.2624   28.4530 C   0  0  0  0  0  0  0  0  0  0  0  0
   -5.7662  -11.8845   28.0171 C   0  0  0  0  0  0  0  0  0  0  0  0
   -6.0406   -8.9828   29.0073 H   0  0  0  0  0  0  0  0  0  0  0  0
   -7.4271  -11.3932   29.4258 H   0  0  0  0  0  0  0  0  0  0  0  0
   -8.5728  -12.3021   25.8996 H   0  0  0  0  0  0  0  0  0  0  0  0
   -7.3592  -16.1522   27.9826 H   0  0  0  0  0  0  0  0  0  0  0  0
   -8.0265  -19.5503   27.1885 H   0  0  0  0  0  0  0  0  0  0  0  0
  -11.0645  -21.6402   29.4351 H   0  0  0  0  0  0  0  0  0  0  0  0
  -11.2056  -18.5017   28.8109 H   0  0  0  0  0  0  0  0  0  0  0  0
   -5.8000  -15.1858   27.9086 H   0  0  0  0  0  0  0  0  0  0  0  0
   -5.5955  -13.6324   29.4844 H   0  0  0  0  0  0  0  0  0  0  0  0
  1  2  3  0
  2  3  1  0
  3  4  2  0
  4  5  1  0
  5  6  1  0
  6  7  2  0
  7  8  1  0
  8  9  1  0
  9 10  2  0
  9 11  1  0
 11 12  1  0
 12 13  2  0
 13 14  1  0
 14 15  2  0
 15 16  1  0
 16 17  2  0
  8 18  2  0
 18 19  1  0
 19 20  2  0
 20  3  1  0
 20  6  1  0
 17 12  1  0
  4 21  1  0
  5 22  1  0
  7 23  1  0
 11 24  1  0
 13 25  1  0
 15 26  1  0
 17 27  1  0
 18 28  1  0
 19 29  1  0
M  END
>  <Energy>  (1312) 
654.83567726124716

>  <compound_id>  (1312) 
75258

>  <target_id>  (1312) 
1

>  <reference_id>  (1312) 
54

>  <inspiration_ids>  (1312) 
[40, 54]

>  <energy_score>  (1312) 
565.0117812078237

>  <distance_score>  (1312) 
8.427364360355208

>  <path>  (1312) 
/opt/xchem-fragalysis-2/maxwin/BulkDock/SCRATCH/511017/C75258-P54/C75258-P54.minimised.mol

>  <scratch_subdir>  (1312) 
/opt/xchem-fragalysis-2/maxwin/BulkDock/SCRATCH/511017/C75258-P54

>  <fragmenstein_runtime>  (1312) 
11.069015979766846

>  <fragmenstein_outcome>  (1312) 
too moved

>  <fragmenstein_mode>  (1312) 
expansion

>  <fragmenstein_error>  (1312) 


$$$$
C75260-P40
     RDKit          3D

 31 33  0  0  0  0  0  0  0  0999 V2000
  -12.1908  -11.9030   32.8149 O   0  0  0  0  0  0  0  0  0  0  0  0
  -12.7382  -11.5798   31.7975 C   0  0  0  0  0  0  0  0  0  0  0  0
  -12.5435  -10.4260   30.9441 N   0  0  0  0  0  0  0  0  0  0  0  0
  -11.5891   -9.3823   30.9955 C   0  0  0  0  0  0  0  0  0  0  0  0
  -11.7821   -8.3337   30.0661 C   0  0  0  0  0  0  0  0  0  0  0  0
  -10.8037   -7.3820   29.7765 C   0  0  0  0  0  0  0  0  0  0  0  0
   -9.5576   -7.4615   30.3686 C   0  0  0  0  0  0  0  0  0  0  0  0
   -9.3545   -8.4943   31.2946 C   0  0  0  0  0  0  0  0  0  0  0  0
  -10.3383   -9.4202   31.6714 C   0  0  0  0  0  0  0  0  0  0  0  0
   -9.7179  -10.2550   32.6540 C   0  0  0  0  0  0  0  0  0  0  0  0
   -8.4053   -9.8848   32.8035 C   0  0  0  0  0  0  0  0  0  0  0  0
   -8.2043   -8.8491   31.9525 N   0  0  0  0  0  0  0  0  0  0  0  0
   -6.9476   -8.2112   31.7057 C   0  0  0  0  0  0  0  0  0  0  0  0
   -6.0327   -8.5872   32.6377 F   0  0  0  0  0  0  0  0  0  0  0  0
   -7.1128   -6.8650   31.8109 F   0  0  0  0  0  0  0  0  0  0  0  0
  -13.7147  -12.6130   31.2886 C   0  0  0  0  0  0  0  0  0  0  0  0
  -13.9871  -13.7476   32.0439 C   0  0  0  0  0  0  0  0  0  0  0  0
  -14.7011  -14.8181   31.6086 N   0  0  0  0  0  0  0  0  0  0  0  0
  -15.1357  -14.7435   30.3413 C   0  0  0  0  0  0  0  0  0  0  0  0
  -14.9003  -13.7379   29.4938 N   0  0  0  0  0  0  0  0  0  0  0  0
  -14.1846  -12.7019   29.9909 C   0  0  0  0  0  0  0  0  0  0  0  0
  -13.2371  -10.4344   30.2159 H   0  0  0  0  0  0  0  0  0  0  0  0
  -12.7202   -8.2697   29.5176 H   0  0  0  0  0  0  0  0  0  0  0  0
  -11.0075   -6.6016   29.0475 H   0  0  0  0  0  0  0  0  0  0  0  0
   -8.7789   -6.7524   30.1061 H   0  0  0  0  0  0  0  0  0  0  0  0
  -10.1652  -11.0783   33.1881 H   0  0  0  0  0  0  0  0  0  0  0  0
   -7.6153  -10.2913   33.4212 H   0  0  0  0  0  0  0  0  0  0  0  0
   -6.6332   -8.4979   30.7013 H   0  0  0  0  0  0  0  0  0  0  0  0
  -13.6131  -13.8434   33.0618 H   0  0  0  0  0  0  0  0  0  0  0  0
  -15.7411  -15.5594   29.9640 H   0  0  0  0  0  0  0  0  0  0  0  0
  -13.9894  -11.9466   29.2383 H   0  0  0  0  0  0  0  0  0  0  0  0
  1  2  2  0
  2  3  1  0
  3  4  1  0
  4  5  2  0
  5  6  1  0
  6  7  2  0
  7  8  1  0
  8  9  2  0
  9 10  1  0
 10 11  2  0
 11 12  1  0
 12 13  1  0
 13 14  1  0
 13 15  1  0
  2 16  1  0
 16 17  2  0
 17 18  1  0
 18 19  2  0
 19 20  1  0
 20 21  2  0
  9  4  1  0
 21 16  1  0
 12  8  1  0
  3 22  1  0
  5 23  1  0
  6 24  1  0
  7 25  1  0
 10 26  1  0
 11 27  1  0
 13 28  1  0
 17 29  1  0
 19 30  1  0
 21 31  1  0
M  END
>  <Energy>  (1313) 
68.403148345880311

>  <compound_id>  (1313) 
75260

>  <target_id>  (1313) 
1

>  <reference_id>  (1313) 
40

>  <inspiration_ids>  (1313) 
[40, 54]

>  <energy_score>  (1313) 
-15.336247326883836

>  <distance_score>  (1313) 
11.439628017657087

>  <path>  (1313) 
/opt/xchem-fragalysis-2/maxwin/BulkDock/SCRATCH/511017/C75260-P40/C75260-P40.minimised.mol

>  <scratch_subdir>  (1313) 
/opt/xchem-fragalysis-2/maxwin/BulkDock/SCRATCH/511017/C75260-P40

>  <fragmenstein_runtime>  (1313) 
17.090258359909058

>  <fragmenstein_outcome>  (1313) 
too moved

>  <fragmenstein_mode>  (1313) 
expansion

>  <fragmenstein_error>  (1313) 


$$$$
C75260-P54
     RDKit          3D

 31 33  0  0  0  0  0  0  0  0999 V2000
   -5.4230  -16.1144   28.3643 O   0  0  0  0  0  0  0  0  0  0  0  0
   -6.1489  -15.4000   28.1708 C   0  0  0  0  0  0  0  0  0  0  0  0
   -5.2848  -13.6824   28.3514 N   0  0  0  0  0  0  0  0  0  0  0  0
   -3.3434  -13.1700   28.6845 C   0  0  0  0  0  0  0  0  0  0  0  0
   -2.8725  -13.1156   30.3327 C   0  0  0  0  0  0  0  0  0  0  0  0
   -2.2967  -11.9567   31.1051 C   0  0  0  0  0  0  0  0  0  0  0  0
   -1.4857  -10.9734   30.6105 C   0  0  0  0  0  0  0  0  0  0  0  0
   -1.0668  -10.9788   29.1286 C   0  0  0  0  0  0  0  0  0  0  0  0
   -1.6950  -12.3288   28.2429 C   0  0  0  0  0  0  0  0  0  0  0  0
   -0.2666  -12.2565   28.8972 C   0  0  0  0  0  0  0  0  0  0  0  0
    0.3803  -10.6586   29.4064 C   0  0  0  0  0  0  0  0  0  0  0  0
   -0.3858   -9.8047   28.5661 N   0  0  0  0  0  0  0  0  0  0  0  0
    0.1262   -8.6369   27.0130 C   0  0  0  0  0  0  0  0  0  0  0  0
   -0.8462   -7.6970   26.7387 F   0  0  0  0  0  0  0  0  0  0  0  0
    1.3401   -7.9950   27.1968 F   0  0  0  0  0  0  0  0  0  0  0  0
   -8.0628  -16.4845   27.8920 C   0  0  0  0  0  0  0  0  0  0  0  0
   -8.0282  -17.6698   27.4625 C   0  0  0  0  0  0  0  0  0  0  0  0
   -9.0087  -19.2282   27.2464 N   0  0  0  0  0  0  0  0  0  0  0  0
  -10.0097  -20.0154   27.9623 C   0  0  0  0  0  0  0  0  0  0  0  0
  -10.3503  -19.3516   28.9259 N   0  0  0  0  0  0  0  0  0  0  0  0
   -9.4183  -18.0461   28.5640 C   0  0  0  0  0  0  0  0  0  0  0  0
   -5.9496  -12.9644   28.0844 H   0  0  0  0  0  0  0  0  0  0  0  0
   -3.5893  -13.5752   31.0288 H   0  0  0  0  0  0  0  0  0  0  0  0
   -2.9233  -11.4957   31.8732 H   0  0  0  0  0  0  0  0  0  0  0  0
   -1.3401  -10.0050   31.0398 H   0  0  0  0  0  0  0  0  0  0  0  0
    0.3452  -13.1521   29.0253 H   0  0  0  0  0  0  0  0  0  0  0  0
    1.3386  -10.3699   29.8544 H   0  0  0  0  0  0  0  0  0  0  0  0
    0.4269   -9.0119   26.0431 H   0  0  0  0  0  0  0  0  0  0  0  0
   -7.1166  -18.3625   26.9736 H   0  0  0  0  0  0  0  0  0  0  0  0
  -10.3975  -20.9646   27.6541 H   0  0  0  0  0  0  0  0  0  0  0  0
   -9.9491  -18.0149   29.6352 H   0  0  0  0  0  0  0  0  0  0  0  0
  1  2  2  0
  2  3  1  0
  3  4  1  0
  4  5  2  0
  5  6  1  0
  6  7  2  0
  7  8  1  0
  8  9  2  0
  9 10  1  0
 10 11  2  0
 11 12  1  0
 12 13  1  0
 13 14  1  0
 13 15  1  0
  2 16  1  0
 16 17  2  0
 17 18  1  0
 18 19  2  0
 19 20  1  0
 20 21  2  0
  9  4  1  0
 21 16  1  0
 12  8  1  0
  3 22  1  0
  5 23  1  0
  6 24  1  0
  7 25  1  0
 10 26  1  0
 11 27  1  0
 13 28  1  0
 17 29  1  0
 19 30  1  0
 21 31  1  0
M  END
>  <Energy>  (1314) 
1835.1215804908943

>  <compound_id>  (1314) 
75260

>  <target_id>  (1314) 
1

>  <reference_id>  (1314) 
54

>  <inspiration_ids>  (1314) 
[40, 54]

>  <energy_score>  (1314) 
1751.382184818147

>  <distance_score>  (1314) 
6.736695346911085

>  <path>  (1314) 
/opt/xchem-fragalysis-2/maxwin/BulkDock/SCRATCH/511017/C75260-P54/C75260-P54.minimised.mol

>  <scratch_subdir>  (1314) 
/opt/xchem-fragalysis-2/maxwin/BulkDock/SCRATCH/511017/C75260-P54

>  <fragmenstein_runtime>  (1314) 
10.878369808197021

>  <fragmenstein_outcome>  (1314) 
too moved

>  <fragmenstein_mode>  (1314) 
expansion

>  <fragmenstein_error>  (1314) 


$$$$
C75261-P40
     RDKit          3D

 34 36  0  0  0  0  0  0  0  0999 V2000
   -6.4330  -11.7764   32.0011 O   0  0  0  0  0  0  0  0  0  0  0  0
   -5.7738  -11.3077   31.0881 C   0  0  0  0  0  0  0  0  0  0  0  0
   -5.6477  -12.6129   29.4941 N   0  0  0  0  0  0  0  0  0  0  0  0
   -6.5569  -14.4796   29.1113 C   0  0  0  0  0  0  0  0  0  0  0  0
   -7.8256  -16.1314   28.2623 C   0  0  0  0  0  0  0  0  0  0  0  0
   -8.9494  -17.9750   28.4346 C   0  0  0  0  0  0  0  0  0  0  0  0
  -10.8506  -18.2923   29.0919 C   0  0  0  0  0  0  0  0  0  0  0  0
  -11.9203  -19.7105   29.3535 N   0  0  0  0  0  0  0  0  0  0  0  0
  -11.4505  -20.9930   29.0767 C   0  0  0  0  0  0  0  0  0  0  0  0
  -10.2316  -21.0783   28.4268 N   0  0  0  0  0  0  0  0  0  0  0  0
   -9.0182  -19.6939   28.2707 C   0  0  0  0  0  0  0  0  0  0  0  0
   -4.9637   -9.3742   31.6774 C   0  0  0  0  0  0  0  0  0  0  0  0
   -4.9084   -9.1265   33.3783 C   0  0  0  0  0  0  0  0  0  0  0  0
   -3.9144   -8.8819   34.4943 C   0  0  0  0  0  0  0  0  0  0  0  0
   -4.2420   -9.1685   35.7639 F   0  0  0  0  0  0  0  0  0  0  0  0
   -2.6533   -8.4853   34.2067 C   0  0  0  0  0  0  0  0  0  0  0  0
   -2.3227   -8.4710   32.8351 C   0  0  0  0  0  0  0  0  0  0  0  0
   -1.0251   -8.0992   32.3466 C   0  0  0  0  0  0  0  0  0  0  0  0
   -1.2148   -7.6967   31.0764 C   0  0  0  0  0  0  0  0  0  0  0  0
   -2.5764   -7.7058   30.9660 N   0  0  0  0  0  0  0  0  0  0  0  0
   -3.3012   -8.7322   31.7457 C   0  0  0  0  0  0  0  0  0  0  0  0
   -5.1551  -12.1259   28.7267 H   0  0  0  0  0  0  0  0  0  0  0  0
   -7.4852  -13.9543   29.1808 H   0  0  0  0  0  0  0  0  0  0  0  0
   -6.1203  -14.8793   30.0553 H   0  0  0  0  0  0  0  0  0  0  0  0
   -8.3922  -15.2319   27.9313 H   0  0  0  0  0  0  0  0  0  0  0  0
   -8.0566  -16.1048   27.1742 H   0  0  0  0  0  0  0  0  0  0  0  0
  -11.6890  -17.5506   29.0854 H   0  0  0  0  0  0  0  0  0  0  0  0
  -12.0600  -21.8610   29.2437 H   0  0  0  0  0  0  0  0  0  0  0  0
   -8.1534  -20.4310   27.9328 H   0  0  0  0  0  0  0  0  0  0  0  0
   -5.5926   -9.9432   33.7838 H   0  0  0  0  0  0  0  0  0  0  0  0
   -1.9424   -8.2484   34.9922 H   0  0  0  0  0  0  0  0  0  0  0  0
   -0.1277   -7.9765   32.9378 H   0  0  0  0  0  0  0  0  0  0  0  0
   -0.5683   -7.2377   30.3416 H   0  0  0  0  0  0  0  0  0  0  0  0
   -2.9983   -7.3850   30.1142 H   0  0  0  0  0  0  0  0  0  0  0  0
  1  2  2  0
  2  3  1  0
  3  4  1  0
  4  5  1  0
  5  6  1  0
  6  7  2  0
  7  8  1  0
  8  9  2  0
  9 10  1  0
 10 11  2  0
  2 12  1  0
 12 13  2  0
 13 14  1  0
 14 15  1  0
 14 16  2  0
 16 17  1  0
 17 18  1  0
 18 19  2  0
 19 20  1  0
 20 21  1  0
 11  6  1  0
 21 12  1  0
 21 17  2  0
  3 22  1  0
  4 23  1  0
  4 24  1  0
  5 25  1  0
  5 26  1  0
  7 27  1  0
  9 28  1  0
 11 29  1  0
 13 30  1  0
 16 31  1  0
 18 32  1  0
 19 33  1  0
 20 34  1  0
M  END
>  <Energy>  (1315) 
1417.9705424887811

>  <compound_id>  (1315) 
75261

>  <target_id>  (1315) 
1

>  <reference_id>  (1315) 
40

>  <inspiration_ids>  (1315) 
[40, 54]

>  <energy_score>  (1315) 
1397.3895305421906

>  <distance_score>  (1315) 
6.1245603967516455

>  <path>  (1315) 
/opt/xchem-fragalysis-2/maxwin/BulkDock/SCRATCH/511017/C75261-P40/C75261-P40.minimised.mol

>  <scratch_subdir>  (1315) 
/opt/xchem-fragalysis-2/maxwin/BulkDock/SCRATCH/511017/C75261-P40

>  <fragmenstein_runtime>  (1315) 
13.301480054855347

>  <fragmenstein_outcome>  (1315) 
too moved

>  <fragmenstein_mode>  (1315) 
expansion

>  <fragmenstein_error>  (1315) 


$$$$
C75261-P54
     RDKit          3D

 34 36  0  0  0  0  0  0  0  0999 V2000
   -2.5583  -12.2784   27.3010 O   0  0  0  0  0  0  0  0  0  0  0  0
   -1.4074  -12.5441   27.1584 C   0  0  0  0  0  0  0  0  0  0  0  0
   -0.7405  -13.5286   26.1390 N   0  0  0  0  0  0  0  0  0  0  0  0
   -1.3543  -14.4711   25.1447 C   0  0  0  0  0  0  0  0  0  0  0  0
   -0.7887  -15.9348   25.0296 C   0  0  0  0  0  0  0  0  0  0  0  0
   -1.7068  -17.1022   24.6818 C   0  0  0  0  0  0  0  0  0  0  0  0
   -2.8283  -17.0280   23.8862 C   0  0  0  0  0  0  0  0  0  0  0  0
   -3.6216  -18.0809   23.5666 N   0  0  0  0  0  0  0  0  0  0  0  0
   -3.2588  -19.2694   24.0701 C   0  0  0  0  0  0  0  0  0  0  0  0
   -2.1763  -19.4993   24.8238 N   0  0  0  0  0  0  0  0  0  0  0  0
   -1.4310  -18.4003   25.1042 C   0  0  0  0  0  0  0  0  0  0  0  0
   -0.5110  -11.7304   28.2888 C   0  0  0  0  0  0  0  0  0  0  0  0
   -0.8611  -12.0247   29.4848 C   0  0  0  0  0  0  0  0  0  0  0  0
   -0.4030  -10.8725   29.9464 C   0  0  0  0  0  0  0  0  0  0  0  0
    0.9721  -10.5262   29.9324 F   0  0  0  0  0  0  0  0  0  0  0  0
   -1.0376   -9.8358   30.3022 C   0  0  0  0  0  0  0  0  0  0  0  0
   -1.1359   -9.4577   28.9154 C   0  0  0  0  0  0  0  0  0  0  0  0
   -1.9766   -8.3019   27.7763 C   0  0  0  0  0  0  0  0  0  0  0  0
   -1.1198   -7.8472   26.7386 C   0  0  0  0  0  0  0  0  0  0  0  0
    0.1152   -8.5975   26.9350 N   0  0  0  0  0  0  0  0  0  0  0  0
   -0.1799   -9.9089   28.2761 C   0  0  0  0  0  0  0  0  0  0  0  0
    0.2479  -13.5913   26.3336 H   0  0  0  0  0  0  0  0  0  0  0  0
   -2.3870  -14.5622   25.4670 H   0  0  0  0  0  0  0  0  0  0  0  0
   -1.3351  -13.9731   24.1707 H   0  0  0  0  0  0  0  0  0  0  0  0
    0.0020  -15.9133   24.2675 H   0  0  0  0  0  0  0  0  0  0  0  0
   -0.2683  -16.1740   25.9648 H   0  0  0  0  0  0  0  0  0  0  0  0
   -3.1317  -16.0869   23.4382 H   0  0  0  0  0  0  0  0  0  0  0  0
   -3.8875  -20.1194   23.8328 H   0  0  0  0  0  0  0  0  0  0  0  0
   -0.5616  -18.6053   25.7244 H   0  0  0  0  0  0  0  0  0  0  0  0
   -1.7272  -12.5757   29.7836 H   0  0  0  0  0  0  0  0  0  0  0  0
   -1.7481   -9.7917   31.0793 H   0  0  0  0  0  0  0  0  0  0  0  0
   -2.8839   -7.7995   28.0834 H   0  0  0  0  0  0  0  0  0  0  0  0
   -1.1639   -7.1084   25.9504 H   0  0  0  0  0  0  0  0  0  0  0  0
    0.8750   -8.7058   26.2844 H   0  0  0  0  0  0  0  0  0  0  0  0
  1  2  2  0
  2  3  1  0
  3  4  1  0
  4  5  1  0
  5  6  1  0
  6  7  2  0
  7  8  1  0
  8  9  2  0
  9 10  1  0
 10 11  2  0
  2 12  1  0
 12 13  2  0
 13 14  1  0
 14 15  1  0
 14 16  2  0
 16 17  1  0
 17 18  1  0
 18 19  2  0
 19 20  1  0
 20 21  1  0
 11  6  1  0
 21 12  1  0
 21 17  2  0
  3 22  1  0
  4 23  1  0
  4 24  1  0
  5 25  1  0
  5 26  1  0
  7 27  1  0
  9 28  1  0
 11 29  1  0
 13 30  1  0
 16 31  1  0
 18 32  1  0
 19 33  1  0
 20 34  1  0
M  END
>  <Energy>  (1316) 
456.26958074061253

>  <compound_id>  (1316) 
75261

>  <target_id>  (1316) 
1

>  <reference_id>  (1316) 
54

>  <inspiration_ids>  (1316) 
[40, 54]

>  <energy_score>  (1316) 
435.68856879401807

>  <distance_score>  (1316) 
8.81827099955917

>  <path>  (1316) 
/opt/xchem-fragalysis-2/maxwin/BulkDock/SCRATCH/511017/C75261-P54/C75261-P54.minimised.mol

>  <scratch_subdir>  (1316) 
/opt/xchem-fragalysis-2/maxwin/BulkDock/SCRATCH/511017/C75261-P54

>  <fragmenstein_runtime>  (1316) 
13.61706829071045

>  <fragmenstein_outcome>  (1316) 
too moved

>  <fragmenstein_mode>  (1316) 
expansion

>  <fragmenstein_error>  (1316) 


$$$$
C75262-P40
     RDKit          3D

 38 40  0  0  0  0  0  0  0  0999 V2000
   -9.3281  -20.7078   27.6374 C   0  0  0  0  0  0  0  0  0  0  0  0
   -8.8963  -19.3505   28.3624 C   0  0  0  0  0  0  0  0  0  0  0  0
   -7.9721  -17.5427   28.2344 N   0  0  0  0  0  0  0  0  0  0  0  0
   -6.7400  -15.9323   28.6622 C   0  0  0  0  0  0  0  0  0  0  0  0
   -6.1396  -14.0019   29.4295 C   0  0  0  0  0  0  0  0  0  0  0  0
   -4.7647  -12.3657   29.1665 C   0  0  0  0  0  0  0  0  0  0  0  0
   -3.9210  -11.9746   28.0959 C   0  0  0  0  0  0  0  0  0  0  0  0
   -2.5611  -11.7038   28.2433 N   0  0  0  0  0  0  0  0  0  0  0  0
   -2.0983  -11.2113   29.4395 C   0  0  0  0  0  0  0  0  0  0  0  0
   -0.9583  -10.1273   29.9664 C   0  0  0  0  0  0  0  0  0  0  0  0
    0.0733   -9.1287   28.9152 Cl  0  0  0  0  0  0  0  0  0  0  0  0
   -0.9746   -9.2488   31.1474 C   0  0  0  0  0  0  0  0  0  0  0  0
   -2.1108   -9.0332   31.7934 C   0  0  0  0  0  0  0  0  0  0  0  0
   -3.1522   -9.7682   31.1570 C   0  0  0  0  0  0  0  0  0  0  0  0
   -3.3661  -11.2925   29.9864 C   0  0  0  0  0  0  0  0  0  0  0  0
  -10.4347  -20.5185   29.2810 C   0  0  0  0  0  0  0  0  0  0  0  0
  -11.8189  -20.2514   29.4632 C   0  0  0  0  0  0  0  0  0  0  0  0
  -12.7960  -21.0018   29.8890 N   0  0  0  0  0  0  0  0  0  0  0  0
  -12.2723  -22.1278   30.0485 C   0  0  0  0  0  0  0  0  0  0  0  0
  -11.6739  -22.6609   29.0566 N   0  0  0  0  0  0  0  0  0  0  0  0
  -10.5801  -22.0189   29.0366 C   0  0  0  0  0  0  0  0  0  0  0  0
  -10.3203  -21.2303   27.4879 H   0  0  0  0  0  0  0  0  0  0  0  0
   -9.8957  -20.5459   26.7648 H   0  0  0  0  0  0  0  0  0  0  0  0
   -8.2917  -21.2401   27.5556 H   0  0  0  0  0  0  0  0  0  0  0  0
   -9.4659  -18.5614   27.8593 H   0  0  0  0  0  0  0  0  0  0  0  0
   -7.0917  -18.1535   28.2844 H   0  0  0  0  0  0  0  0  0  0  0  0
   -7.6858  -15.4495   28.2787 H   0  0  0  0  0  0  0  0  0  0  0  0
   -6.0700  -16.4510   29.3856 H   0  0  0  0  0  0  0  0  0  0  0  0
   -6.3253  -14.0130   30.5101 H   0  0  0  0  0  0  0  0  0  0  0  0
   -6.9286  -13.6049   28.7914 H   0  0  0  0  0  0  0  0  0  0  0  0
   -4.0752  -12.1284   27.0722 H   0  0  0  0  0  0  0  0  0  0  0  0
   -2.1182  -11.4526   27.3756 H   0  0  0  0  0  0  0  0  0  0  0  0
   -0.1750   -8.5341   31.3507 H   0  0  0  0  0  0  0  0  0  0  0  0
   -2.2566   -8.2498   32.5170 H   0  0  0  0  0  0  0  0  0  0  0  0
   -4.0677   -9.1342   31.4143 H   0  0  0  0  0  0  0  0  0  0  0  0
  -12.3251  -19.4109   29.0317 H   0  0  0  0  0  0  0  0  0  0  0  0
  -11.8054  -22.3032   31.0128 H   0  0  0  0  0  0  0  0  0  0  0  0
   -9.8669  -22.6585   28.5024 H   0  0  0  0  0  0  0  0  0  0  0  0
  1  2  1  0
  2  3  1  0
  3  4  1  0
  4  5  1  0
  5  6  1  0
  6  7  2  0
  7  8  1  0
  8  9  1  0
  9 10  2  0
 10 11  1  0
 10 12  1  0
 12 13  2  0
 13 14  1  0
 14 15  2  0
  2 16  1  0
 16 17  2  0
 17 18  1  0
 18 19  2  0
 19 20  1  0
 20 21  2  0
 15  6  1  0
 21 16  1  0
 15  9  1  0
  1 22  1  0
  1 23  1  0
  1 24  1  0
  2 25  1  0
  3 26  1  0
  4 27  1  0
  4 28  1  0
  5 29  1  0
  5 30  1  0
  7 31  1  0
  8 32  1  0
 12 33  1  0
 13 34  1  0
 14 35  1  0
 17 36  1  0
 19 37  1  0
 21 38  1  0
M  END
>  <Energy>  (1317) 
1380.988334880459

>  <compound_id>  (1317) 
75262

>  <target_id>  (1317) 
1

>  <reference_id>  (1317) 
40

>  <inspiration_ids>  (1317) 
[40, 54]

>  <energy_score>  (1317) 
1332.0550491052868

>  <distance_score>  (1317) 
5.1612606080899175

>  <path>  (1317) 
/opt/xchem-fragalysis-2/maxwin/BulkDock/SCRATCH/511017/C75262-P40/C75262-P40.minimised.mol

>  <scratch_subdir>  (1317) 
/opt/xchem-fragalysis-2/maxwin/BulkDock/SCRATCH/511017/C75262-P40

>  <fragmenstein_runtime>  (1317) 
14.346333503723145

>  <fragmenstein_outcome>  (1317) 
too moved

>  <fragmenstein_mode>  (1317) 
expansion

>  <fragmenstein_error>  (1317) 


$$$$
C75262-P54
     RDKit          3D

 38 40  0  0  0  0  0  0  0  0999 V2000
   -9.7030  -18.1745   28.6475 C   0  0  0  0  0  0  0  0  0  0  0  0
   -7.8396  -17.1864   28.4974 C   0  0  0  0  0  0  0  0  0  0  0  0
   -6.8335  -15.6615   29.7552 N   0  0  0  0  0  0  0  0  0  0  0  0
   -5.4157  -14.0336   30.3712 C   0  0  0  0  0  0  0  0  0  0  0  0
   -3.4487  -12.8227   30.7979 C   0  0  0  0  0  0  0  0  0  0  0  0
   -2.1637  -10.9459   31.0541 C   0  0  0  0  0  0  0  0  0  0  0  0
   -0.9541  -10.8247   30.0875 C   0  0  0  0  0  0  0  0  0  0  0  0
    0.2298   -9.8337   30.2847 N   0  0  0  0  0  0  0  0  0  0  0  0
    0.2568   -8.7264   31.2775 C   0  0  0  0  0  0  0  0  0  0  0  0
    1.6307   -7.4451   31.4220 C   0  0  0  0  0  0  0  0  0  0  0  0
    3.1151   -8.3384   32.0033 Cl  0  0  0  0  0  0  0  0  0  0  0  0
    1.7211   -5.5132   30.5021 C   0  0  0  0  0  0  0  0  0  0  0  0
   -0.3081   -5.3252   29.7201 C   0  0  0  0  0  0  0  0  0  0  0  0
   -1.6050   -6.8597   30.3933 C   0  0  0  0  0  0  0  0  0  0  0  0
   -1.4957   -8.8517   30.9736 C   0  0  0  0  0  0  0  0  0  0  0  0
   -9.5296  -18.5231   29.3005 C   0  0  0  0  0  0  0  0  0  0  0  0
  -10.2709  -18.5378   30.8213 C   0  0  0  0  0  0  0  0  0  0  0  0
  -11.1398  -19.4539   31.3812 N   0  0  0  0  0  0  0  0  0  0  0  0
  -11.3973  -20.6015   30.7150 C   0  0  0  0  0  0  0  0  0  0  0  0
  -10.8914  -21.0373   29.5466 N   0  0  0  0  0  0  0  0  0  0  0  0
  -10.0208  -20.1842   28.9247 C   0  0  0  0  0  0  0  0  0  0  0  0
  -10.4346  -16.8684   28.3340 H   0  0  0  0  0  0  0  0  0  0  0  0
  -11.1637  -18.4633   28.8405 H   0  0  0  0  0  0  0  0  0  0  0  0
   -9.3435  -18.9421   27.4975 H   0  0  0  0  0  0  0  0  0  0  0  0
   -8.1388  -16.5575   27.5408 H   0  0  0  0  0  0  0  0  0  0  0  0
   -6.8155  -16.1656   30.6638 H   0  0  0  0  0  0  0  0  0  0  0  0
   -5.6859  -13.5803   29.4059 H   0  0  0  0  0  0  0  0  0  0  0  0
   -6.0037  -13.7426   31.2531 H   0  0  0  0  0  0  0  0  0  0  0  0
   -2.8725  -13.0423   29.8472 H   0  0  0  0  0  0  0  0  0  0  0  0
   -2.8283  -13.5865   31.2245 H   0  0  0  0  0  0  0  0  0  0  0  0
   -0.6820  -11.5686   29.3431 H   0  0  0  0  0  0  0  0  0  0  0  0
    1.0971  -10.0434   29.8326 H   0  0  0  0  0  0  0  0  0  0  0  0
    2.5173   -4.7548   30.5960 H   0  0  0  0  0  0  0  0  0  0  0  0
   -0.7669   -4.3374   29.5160 H   0  0  0  0  0  0  0  0  0  0  0  0
   -2.6401   -6.6401   30.0743 H   0  0  0  0  0  0  0  0  0  0  0  0
  -10.0978  -17.7561   31.5663 H   0  0  0  0  0  0  0  0  0  0  0  0
  -12.0918  -21.2752   31.2106 H   0  0  0  0  0  0  0  0  0  0  0  0
   -9.5562  -20.7154   28.1110 H   0  0  0  0  0  0  0  0  0  0  0  0
  1  2  1  0
  2  3  1  0
  3  4  1  0
  4  5  1  0
  5  6  1  0
  6  7  2  0
  7  8  1  0
  8  9  1  0
  9 10  2  0
 10 11  1  0
 10 12  1  0
 12 13  2  0
 13 14  1  0
 14 15  2  0
  2 16  1  0
 16 17  2  0
 17 18  1  0
 18 19  2  0
 19 20  1  0
 20 21  2  0
 15  6  1  0
 21 16  1  0
 15  9  1  0
  1 22  1  0
  1 23  1  0
  1 24  1  0
  2 25  1  0
  3 26  1  0
  4 27  1  0
  4 28  1  0
  5 29  1  0
  5 30  1  0
  7 31  1  0
  8 32  1  0
 12 33  1  0
 13 34  1  0
 14 35  1  0
 17 36  1  0
 19 37  1  0
 21 38  1  0
M  END
>  <Energy>  (1318) 
3203.6261806592406

>  <compound_id>  (1318) 
75262

>  <target_id>  (1318) 
1

>  <reference_id>  (1318) 
54

>  <inspiration_ids>  (1318) 
[40, 54]

>  <energy_score>  (1318) 
3154.6928948840887

>  <distance_score>  (1318) 
4.571372068212577

>  <path>  (1318) 
/opt/xchem-fragalysis-2/maxwin/BulkDock/SCRATCH/511017/C75262-P54/C75262-P54.minimised.mol

>  <scratch_subdir>  (1318) 
/opt/xchem-fragalysis-2/maxwin/BulkDock/SCRATCH/511017/C75262-P54

>  <fragmenstein_runtime>  (1318) 
10.919622659683228

>  <fragmenstein_outcome>  (1318) 
too moved

>  <fragmenstein_mode>  (1318) 
expansion

>  <fragmenstein_error>  (1318) 


$$$$
C75263-P40
     RDKit          3D

 40 42  0  0  0  0  0  0  0  0999 V2000
   -0.3387   -6.9223   30.9028 C   0  0  0  0  0  0  0  0  0  0  0  0
    0.0525   -7.2723   29.4903 C   0  0  0  0  0  0  0  0  0  0  0  0
    1.2438   -6.7830   28.9555 C   0  0  0  0  0  0  0  0  0  0  0  0
    1.8774   -7.4335   27.8904 C   0  0  0  0  0  0  0  0  0  0  0  0
    1.1999   -8.5541   27.2528 C   0  0  0  0  0  0  0  0  0  0  0  0
    1.4957   -9.4454   25.6451 N   0  0  0  0  0  0  0  0  0  0  0  0
    0.0621  -10.3847   24.7787 C   0  0  0  0  0  0  0  0  0  0  0  0
   -1.7494  -10.1393   25.8765 C   0  0  0  0  0  0  0  0  0  0  0  0
   -3.3205  -11.7897   25.6052 C   0  0  0  0  0  0  0  0  0  0  0  0
   -5.5389  -12.3751   25.0367 C   0  0  0  0  0  0  0  0  0  0  0  0
   -5.9911  -11.9917   23.9750 O   0  0  0  0  0  0  0  0  0  0  0  0
   -6.4520  -13.6934   26.3407 N   0  0  0  0  0  0  0  0  0  0  0  0
   -8.1905  -14.9240   26.3045 C   0  0  0  0  0  0  0  0  0  0  0  0
   -8.8402  -16.9148   27.1794 C   0  0  0  0  0  0  0  0  0  0  0  0
   -9.1992  -18.8818   28.0911 C   0  0  0  0  0  0  0  0  0  0  0  0
  -10.3356  -20.1871   29.1895 C   0  0  0  0  0  0  0  0  0  0  0  0
  -11.0995  -21.3775   29.7547 N   0  0  0  0  0  0  0  0  0  0  0  0
  -11.1429  -22.2841   28.8722 C   0  0  0  0  0  0  0  0  0  0  0  0
  -10.2196  -22.1560   28.0053 N   0  0  0  0  0  0  0  0  0  0  0  0
   -9.5697  -20.6208   27.6808 C   0  0  0  0  0  0  0  0  0  0  0  0
   -0.7576   -8.4905   27.2141 C   0  0  0  0  0  0  0  0  0  0  0  0
   -0.7251   -8.2147   28.7611 C   0  0  0  0  0  0  0  0  0  0  0  0
    0.2314   -7.5204   31.6174 H   0  0  0  0  0  0  0  0  0  0  0  0
   -1.4035   -7.1131   31.0683 H   0  0  0  0  0  0  0  0  0  0  0  0
   -0.1606   -5.8599   31.0980 H   0  0  0  0  0  0  0  0  0  0  0  0
    1.7808   -5.9831   29.4670 H   0  0  0  0  0  0  0  0  0  0  0  0
    2.8635   -7.1284   27.5434 H   0  0  0  0  0  0  0  0  0  0  0  0
    2.4224   -9.6498   25.3010 H   0  0  0  0  0  0  0  0  0  0  0  0
    0.5689  -11.2733   24.1892 H   0  0  0  0  0  0  0  0  0  0  0  0
   -2.7698  -12.3981   24.9187 H   0  0  0  0  0  0  0  0  0  0  0  0
   -3.1119  -12.2412   26.5970 H   0  0  0  0  0  0  0  0  0  0  0  0
   -5.9792  -13.7782   27.0952 H   0  0  0  0  0  0  0  0  0  0  0  0
   -8.2869  -15.1363   25.2728 H   0  0  0  0  0  0  0  0  0  0  0  0
   -8.8353  -14.2920   26.9137 H   0  0  0  0  0  0  0  0  0  0  0  0
   -9.8855  -16.7119   26.9340 H   0  0  0  0  0  0  0  0  0  0  0  0
   -8.2492  -16.6672   28.0466 H   0  0  0  0  0  0  0  0  0  0  0  0
  -11.1287  -19.5892   29.6562 H   0  0  0  0  0  0  0  0  0  0  0  0
  -11.8621  -23.0529   28.7622 H   0  0  0  0  0  0  0  0  0  0  0  0
  -10.2280  -20.7212   26.7786 H   0  0  0  0  0  0  0  0  0  0  0  0
   -0.9174   -9.1051   29.3689 H   0  0  0  0  0  0  0  0  0  0  0  0
  1  2  1  0
  2  3  2  0
  3  4  1  0
  4  5  2  0
  5  6  1  0
  6  7  1  0
  7  8  2  0
  8  9  1  0
  9 10  1  0
 10 11  2  0
 10 12  1  0
 12 13  1  0
 13 14  1  0
 14 15  1  0
 15 16  2  0
 16 17  1  0
 17 18  2  0
 18 19  1  0
 19 20  2  0
  8 21  1  0
 21 22  2  0
 22  2  1  0
 21  5  1  0
 20 15  1  0
  1 23  1  0
  1 24  1  0
  1 25  1  0
  3 26  1  0
  4 27  1  0
  6 28  1  0
  7 29  1  0
  9 30  1  0
  9 31  1  0
 12 32  1  0
 13 33  1  0
 13 34  1  0
 14 35  1  0
 14 36  1  0
 16 37  1  0
 18 38  1  0
 20 39  1  0
 22 40  1  0
M  END
>  <Energy>  (1319) 
2611.5367840195017

>  <compound_id>  (1319) 
75263

>  <target_id>  (1319) 
1

>  <reference_id>  (1319) 
40

>  <inspiration_ids>  (1319) 
[40, 54]

>  <energy_score>  (1319) 
2570.4513361569557

>  <distance_score>  (1319) 
3.8898997548567253

>  <path>  (1319) 
/opt/xchem-fragalysis-2/maxwin/BulkDock/SCRATCH/511017/C75263-P40/C75263-P40.minimised.mol

>  <scratch_subdir>  (1319) 
/opt/xchem-fragalysis-2/maxwin/BulkDock/SCRATCH/511017/C75263-P40

>  <fragmenstein_runtime>  (1319) 
20.09537100791931

>  <fragmenstein_outcome>  (1319) 
too moved

>  <fragmenstein_mode>  (1319) 
expansion

>  <fragmenstein_error>  (1319) 


$$$$
C75263-P54
     RDKit          3D

 40 42  0  0  0  0  0  0  0  0999 V2000
   -2.8006   -8.3324   27.6986 C   0  0  0  0  0  0  0  0  0  0  0  0
   -2.7221   -8.6976   26.2908 C   0  0  0  0  0  0  0  0  0  0  0  0
   -1.6836   -7.8972   25.7122 C   0  0  0  0  0  0  0  0  0  0  0  0
   -1.9290   -7.9515   24.3967 C   0  0  0  0  0  0  0  0  0  0  0  0
   -3.2452   -8.9875   23.5506 C   0  0  0  0  0  0  0  0  0  0  0  0
   -3.7847   -8.5834   22.1620 N   0  0  0  0  0  0  0  0  0  0  0  0
   -4.6029   -9.4740   21.5961 C   0  0  0  0  0  0  0  0  0  0  0  0
   -4.9399  -10.3860   22.5769 C   0  0  0  0  0  0  0  0  0  0  0  0
   -6.2261  -11.5271   22.0473 C   0  0  0  0  0  0  0  0  0  0  0  0
   -5.6207  -13.4892   21.8514 C   0  0  0  0  0  0  0  0  0  0  0  0
   -4.5418  -13.9629   21.6071 O   0  0  0  0  0  0  0  0  0  0  0  0
   -6.9655  -14.1718   22.2249 N   0  0  0  0  0  0  0  0  0  0  0  0
   -7.4095  -15.8962   22.2882 C   0  0  0  0  0  0  0  0  0  0  0  0
   -6.8475  -17.3949   21.7868 C   0  0  0  0  0  0  0  0  0  0  0  0
   -7.7920  -18.5920   21.4743 C   0  0  0  0  0  0  0  0  0  0  0  0
   -7.3474  -19.9087   21.4982 C   0  0  0  0  0  0  0  0  0  0  0  0
   -8.1266  -21.0059   21.3736 N   0  0  0  0  0  0  0  0  0  0  0  0
   -9.4167  -20.7705   21.1291 C   0  0  0  0  0  0  0  0  0  0  0  0
   -9.9634  -19.5574   20.9883 N   0  0  0  0  0  0  0  0  0  0  0  0
   -9.1322  -18.5009   21.1580 C   0  0  0  0  0  0  0  0  0  0  0  0
   -4.0251  -10.0483   23.9755 C   0  0  0  0  0  0  0  0  0  0  0  0
   -3.8751   -9.7637   25.6436 C   0  0  0  0  0  0  0  0  0  0  0  0
   -3.7242   -8.8025   27.9907 H   0  0  0  0  0  0  0  0  0  0  0  0
   -2.8221   -7.2864   28.0233 H   0  0  0  0  0  0  0  0  0  0  0  0
   -1.8544   -8.7023   28.0285 H   0  0  0  0  0  0  0  0  0  0  0  0
   -0.9967   -7.2274   26.1977 H   0  0  0  0  0  0  0  0  0  0  0  0
   -1.4226   -7.1896   23.7672 H   0  0  0  0  0  0  0  0  0  0  0  0
   -3.6948   -7.6224   21.8577 H   0  0  0  0  0  0  0  0  0  0  0  0
   -5.0036   -9.3177   20.6031 H   0  0  0  0  0  0  0  0  0  0  0  0
   -6.6738  -11.1628   21.0944 H   0  0  0  0  0  0  0  0  0  0  0  0
   -6.9430  -11.2157   22.8194 H   0  0  0  0  0  0  0  0  0  0  0  0
   -7.5997  -13.5217   22.4326 H   0  0  0  0  0  0  0  0  0  0  0  0
   -8.0025  -15.3441   23.2181 H   0  0  0  0  0  0  0  0  0  0  0  0
   -8.1718  -16.0819   21.4536 H   0  0  0  0  0  0  0  0  0  0  0  0
   -6.2005  -17.7306   22.5754 H   0  0  0  0  0  0  0  0  0  0  0  0
   -6.3168  -17.2752   20.8437 H   0  0  0  0  0  0  0  0  0  0  0  0
   -6.3121  -20.1642   21.6753 H   0  0  0  0  0  0  0  0  0  0  0  0
  -10.0703  -21.6254   21.0103 H   0  0  0  0  0  0  0  0  0  0  0  0
   -9.6271  -17.5440   21.0451 H   0  0  0  0  0  0  0  0  0  0  0  0
   -4.6012  -10.0483   26.3952 H   0  0  0  0  0  0  0  0  0  0  0  0
  1  2  1  0
  2  3  2  0
  3  4  1  0
  4  5  2  0
  5  6  1  0
  6  7  1  0
  7  8  2  0
  8  9  1  0
  9 10  1  0
 10 11  2  0
 10 12  1  0
 12 13  1  0
 13 14  1  0
 14 15  1  0
 15 16  2  0
 16 17  1  0
 17 18  2  0
 18 19  1  0
 19 20  2  0
  8 21  1  0
 21 22  2  0
 22  2  1  0
 21  5  1  0
 20 15  1  0
  1 23  1  0
  1 24  1  0
  1 25  1  0
  3 26  1  0
  4 27  1  0
  6 28  1  0
  7 29  1  0
  9 30  1  0
  9 31  1  0
 12 32  1  0
 13 33  1  0
 13 34  1  0
 14 35  1  0
 14 36  1  0
 16 37  1  0
 18 38  1  0
 20 39  1  0
 22 40  1  0
M  END
>  <Energy>  (1320) 
435.61400703886255

>  <compound_id>  (1320) 
75263

>  <target_id>  (1320) 
1

>  <reference_id>  (1320) 
54

>  <inspiration_ids>  (1320) 
[40, 54]

>  <energy_score>  (1320) 
394.5285591763454

>  <distance_score>  (1320) 
8.164090919496312

>  <path>  (1320) 
/opt/xchem-fragalysis-2/maxwin/BulkDock/SCRATCH/511017/C75263-P54/C75263-P54.minimised.mol

>  <scratch_subdir>  (1320) 
/opt/xchem-fragalysis-2/maxwin/BulkDock/SCRATCH/511017/C75263-P54

>  <fragmenstein_runtime>  (1320) 
32.24284338951111

>  <fragmenstein_outcome>  (1320) 
too moved

>  <fragmenstein_mode>  (1320) 
expansion

>  <fragmenstein_error>  (1320) 


$$$$
C75264-P40
     RDKit          3D

 41 43  0  0  0  0  0  0  0  0999 V2000
    0.9126   -7.9549   18.6510 C   0  0  0  0  0  0  0  0  0  0  0  0
    1.3001   -9.3044   18.8775 O   0  0  0  0  0  0  0  0  0  0  0  0
    0.3198  -10.2522   18.7584 C   0  0  0  0  0  0  0  0  0  0  0  0
    0.7502  -11.5697   18.9259 C   0  0  0  0  0  0  0  0  0  0  0  0
   -0.1340  -12.6663   18.8113 C   0  0  0  0  0  0  0  0  0  0  0  0
   -1.5030  -12.4466   18.5478 C   0  0  0  0  0  0  0  0  0  0  0  0
   -2.6604  -13.2914   18.2745 C   0  0  0  0  0  0  0  0  0  0  0  0
   -2.7247  -14.7748   17.8736 C   0  0  0  0  0  0  0  0  0  0  0  0
   -3.2276  -15.8518   18.8895 C   0  0  0  0  0  0  0  0  0  0  0  0
   -2.6459  -15.9271   19.9328 O   0  0  0  0  0  0  0  0  0  0  0  0
   -4.3020  -16.6766   18.3374 N   0  0  0  0  0  0  0  0  0  0  0  0
   -4.9389  -17.9205   18.8511 C   0  0  0  0  0  0  0  0  0  0  0  0
   -5.9980  -17.7553   19.9773 C   0  0  0  0  0  0  0  0  0  0  0  0
   -6.7874  -18.9375   20.4939 C   0  0  0  0  0  0  0  0  0  0  0  0
   -6.4272  -20.2657   20.3819 C   0  0  0  0  0  0  0  0  0  0  0  0
   -7.1520  -21.3013   20.8605 N   0  0  0  0  0  0  0  0  0  0  0  0
   -8.2907  -20.9733   21.4833 C   0  0  0  0  0  0  0  0  0  0  0  0
   -8.7353  -19.7280   21.6976 N   0  0  0  0  0  0  0  0  0  0  0  0
   -7.9506  -18.7403   21.2241 C   0  0  0  0  0  0  0  0  0  0  0  0
   -3.7316  -12.4151   18.2055 C   0  0  0  0  0  0  0  0  0  0  0  0
   -3.2750  -11.1272   18.3003 N   0  0  0  0  0  0  0  0  0  0  0  0
   -1.9069  -11.1091   18.4200 C   0  0  0  0  0  0  0  0  0  0  0  0
   -1.0282  -10.0016   18.4899 C   0  0  0  0  0  0  0  0  0  0  0  0
    1.8081   -7.3312   18.7217 H   0  0  0  0  0  0  0  0  0  0  0  0
    0.4994   -7.8228   17.6454 H   0  0  0  0  0  0  0  0  0  0  0  0
    0.2073   -7.6167   19.4171 H   0  0  0  0  0  0  0  0  0  0  0  0
    1.8039  -11.7646   19.1125 H   0  0  0  0  0  0  0  0  0  0  0  0
    0.2441  -13.6793   18.9281 H   0  0  0  0  0  0  0  0  0  0  0  0
   -3.3238  -14.8296   16.9561 H   0  0  0  0  0  0  0  0  0  0  0  0
   -1.7153  -15.0923   17.5791 H   0  0  0  0  0  0  0  0  0  0  0  0
   -4.4986  -16.3748   17.3910 H   0  0  0  0  0  0  0  0  0  0  0  0
   -5.3985  -18.4074   17.9842 H   0  0  0  0  0  0  0  0  0  0  0  0
   -4.1242  -18.5619   19.2031 H   0  0  0  0  0  0  0  0  0  0  0  0
   -6.7165  -17.0013   19.6306 H   0  0  0  0  0  0  0  0  0  0  0  0
   -5.4674  -17.3276   20.8244 H   0  0  0  0  0  0  0  0  0  0  0  0
   -5.5034  -20.5633   19.8957 H   0  0  0  0  0  0  0  0  0  0  0  0
   -8.9034  -21.7801   21.8564 H   0  0  0  0  0  0  0  0  0  0  0  0
   -8.3037  -17.7387   21.4564 H   0  0  0  0  0  0  0  0  0  0  0  0
   -4.7804  -12.5970   18.0169 H   0  0  0  0  0  0  0  0  0  0  0  0
   -3.8575  -10.3027   18.2624 H   0  0  0  0  0  0  0  0  0  0  0  0
   -1.4247   -9.0004   18.3794 H   0  0  0  0  0  0  0  0  0  0  0  0
  1  2  1  0
  2  3  1  0
  3  4  2  0
  4  5  1  0
  5  6  2  0
  6  7  1  0
  7  8  1  0
  8  9  1  0
  9 10  2  0
  9 11  1  0
 11 12  1  0
 12 13  1  0
 13 14  1  0
 14 15  2  0
 15 16  1  0
 16 17  2  0
 17 18  1  0
 18 19  2  0
  7 20  2  0
 20 21  1  0
 21 22  1  0
 22 23  2  0
 23  3  1  0
 22  6  1  0
 19 14  1  0
  1 24  1  0
  1 25  1  0
  1 26  1  0
  4 27  1  0
  5 28  1  0
  8 29  1  0
  8 30  1  0
 11 31  1  0
 12 32  1  0
 12 33  1  0
 13 34  1  0
 13 35  1  0
 15 36  1  0
 17 37  1  0
 19 38  1  0
 20 39  1  0
 21 40  1  0
 23 41  1  0
M  END
>  <Energy>  (1321) 
45.739197595290975

>  <compound_id>  (1321) 
75264

>  <target_id>  (1321) 
1

>  <reference_id>  (1321) 
40

>  <inspiration_ids>  (1321) 
[40, 54]

>  <energy_score>  (1321) 
5.037611370758668

>  <distance_score>  (1321) 
11.592850249000305

>  <path>  (1321) 
/opt/xchem-fragalysis-2/maxwin/BulkDock/SCRATCH/511017/C75264-P40/C75264-P40.minimised.mol

>  <scratch_subdir>  (1321) 
/opt/xchem-fragalysis-2/maxwin/BulkDock/SCRATCH/511017/C75264-P40

>  <fragmenstein_runtime>  (1321) 
27.609004735946655

>  <fragmenstein_outcome>  (1321) 
too moved

>  <fragmenstein_mode>  (1321) 
expansion

>  <fragmenstein_error>  (1321) 


$$$$
C75264-P54
     RDKit          3D

 41 43  0  0  0  0  0  0  0  0999 V2000
   -8.2571   -7.1649   28.9389 C   0  0  0  0  0  0  0  0  0  0  0  0
   -8.0842   -7.7462   27.6556 O   0  0  0  0  0  0  0  0  0  0  0  0
   -8.4647   -9.0507   27.5087 C   0  0  0  0  0  0  0  0  0  0  0  0
   -9.0861   -9.8221   28.4704 C   0  0  0  0  0  0  0  0  0  0  0  0
   -9.5138  -11.1348   28.1743 C   0  0  0  0  0  0  0  0  0  0  0  0
   -9.2658  -11.7753   26.9181 C   0  0  0  0  0  0  0  0  0  0  0  0
   -9.4121  -13.1415   26.2863 C   0  0  0  0  0  0  0  0  0  0  0  0
   -9.7918  -14.7433   26.8243 C   0  0  0  0  0  0  0  0  0  0  0  0
   -8.4682  -15.7470   26.8797 C   0  0  0  0  0  0  0  0  0  0  0  0
   -7.5460  -15.1973   26.4176 O   0  0  0  0  0  0  0  0  0  0  0  0
   -8.5675  -17.2399   27.3569 N   0  0  0  0  0  0  0  0  0  0  0  0
   -7.2643  -18.7709   27.2054 C   0  0  0  0  0  0  0  0  0  0  0  0
   -7.5830  -20.5774   27.6717 C   0  0  0  0  0  0  0  0  0  0  0  0
   -9.0590  -21.5048   28.1344 C   0  0  0  0  0  0  0  0  0  0  0  0
   -9.0500  -22.8148   28.6363 C   0  0  0  0  0  0  0  0  0  0  0  0
  -10.1301  -23.4888   29.1001 N   0  0  0  0  0  0  0  0  0  0  0  0
  -11.2723  -22.7998   29.1314 C   0  0  0  0  0  0  0  0  0  0  0  0
  -11.4221  -21.5256   28.7658 N   0  0  0  0  0  0  0  0  0  0  0  0
  -10.3101  -20.9174   28.2884 C   0  0  0  0  0  0  0  0  0  0  0  0
   -9.0824  -12.8994   24.9524 C   0  0  0  0  0  0  0  0  0  0  0  0
   -8.5739  -11.6344   24.8066 N   0  0  0  0  0  0  0  0  0  0  0  0
   -8.6568  -10.9323   25.9784 C   0  0  0  0  0  0  0  0  0  0  0  0
   -8.2622   -9.6019   26.2433 C   0  0  0  0  0  0  0  0  0  0  0  0
   -7.8641   -6.1442   28.8992 H   0  0  0  0  0  0  0  0  0  0  0  0
   -9.3175   -7.1020   29.2043 H   0  0  0  0  0  0  0  0  0  0  0  0
   -7.6895   -7.7079   29.7017 H   0  0  0  0  0  0  0  0  0  0  0  0
   -9.3065   -9.4368   29.4594 H   0  0  0  0  0  0  0  0  0  0  0  0
  -10.0655  -11.6228   28.9697 H   0  0  0  0  0  0  0  0  0  0  0  0
  -10.1261  -15.0963   25.8448 H   0  0  0  0  0  0  0  0  0  0  0  0
  -10.7153  -14.8466   27.3939 H   0  0  0  0  0  0  0  0  0  0  0  0
   -9.4743  -17.3927   27.7907 H   0  0  0  0  0  0  0  0  0  0  0  0
   -6.1740  -18.9847   27.1859 H   0  0  0  0  0  0  0  0  0  0  0  0
   -6.8548  -18.4409   26.2516 H   0  0  0  0  0  0  0  0  0  0  0  0
   -6.7861  -20.9043   28.3373 H   0  0  0  0  0  0  0  0  0  0  0  0
   -7.2042  -21.0528   26.7701 H   0  0  0  0  0  0  0  0  0  0  0  0
   -8.1455  -23.3886   28.8009 H   0  0  0  0  0  0  0  0  0  0  0  0
  -12.1502  -23.3144   29.5017 H   0  0  0  0  0  0  0  0  0  0  0  0
  -10.4637  -19.8827   28.0728 H   0  0  0  0  0  0  0  0  0  0  0  0
   -9.0648  -13.5806   24.1114 H   0  0  0  0  0  0  0  0  0  0  0  0
   -8.1947  -11.2557   23.9510 H   0  0  0  0  0  0  0  0  0  0  0  0
   -7.8222   -8.9981   25.4562 H   0  0  0  0  0  0  0  0  0  0  0  0
  1  2  1  0
  2  3  1  0
  3  4  2  0
  4  5  1  0
  5  6  2  0
  6  7  1  0
  7  8  1  0
  8  9  1  0
  9 10  2  0
  9 11  1  0
 11 12  1  0
 12 13  1  0
 13 14  1  0
 14 15  2  0
 15 16  1  0
 16 17  2  0
 17 18  1  0
 18 19  2  0
  7 20  2  0
 20 21  1  0
 21 22  1  0
 22 23  2  0
 23  3  1  0
 22  6  1  0
 19 14  1  0
  1 24  1  0
  1 25  1  0
  1 26  1  0
  4 27  1  0
  5 28  1  0
  8 29  1  0
  8 30  1  0
 11 31  1  0
 12 32  1  0
 12 33  1  0
 13 34  1  0
 13 35  1  0
 15 36  1  0
 17 37  1  0
 19 38  1  0
 20 39  1  0
 21 40  1  0
 23 41  1  0
M  END
>  <Energy>  (1322) 
304.20384822486659

>  <compound_id>  (1322) 
75264

>  <target_id>  (1322) 
1

>  <reference_id>  (1322) 
54

>  <inspiration_ids>  (1322) 
[40, 54]

>  <energy_score>  (1322) 
263.5022620003368

>  <distance_score>  (1322) 
8.712507391506554

>  <path>  (1322) 
/opt/xchem-fragalysis-2/maxwin/BulkDock/SCRATCH/511017/C75264-P54/C75264-P54.minimised.mol

>  <scratch_subdir>  (1322) 
/opt/xchem-fragalysis-2/maxwin/BulkDock/SCRATCH/511017/C75264-P54

>  <fragmenstein_runtime>  (1322) 
34.07304406166077

>  <fragmenstein_outcome>  (1322) 
too moved

>  <fragmenstein_mode>  (1322) 
expansion

>  <fragmenstein_error>  (1322) 


$$$$
C75266-P40
     RDKit          3D

 37 40  0  0  0  0  0  0  0  0999 V2000
   -6.8319  -10.6117   31.3675 O   0  0  0  0  0  0  0  0  0  0  0  0
   -6.7326  -11.6312   32.4016 S   0  0  0  0  0  0  0  0  0  0  0  0
   -7.9479  -12.0185   33.1134 O   0  0  0  0  0  0  0  0  0  0  0  0
   -5.9207  -10.3535   33.7338 C   0  0  0  0  0  0  0  0  0  0  0  0
   -5.8511  -10.4788   35.2213 C   0  0  0  0  0  0  0  0  0  0  0  0
   -4.8244   -9.8730   36.0492 C   0  0  0  0  0  0  0  0  0  0  0  0
   -3.7380   -9.2898   35.4636 C   0  0  0  0  0  0  0  0  0  0  0  0
   -3.9002   -8.9376   34.1435 C   0  0  0  0  0  0  0  0  0  0  0  0
   -5.1631   -9.1818   33.2747 C   0  0  0  0  0  0  0  0  0  0  0  0
   -6.3071  -13.4200   31.2161 N   0  0  0  0  0  0  0  0  0  0  0  0
   -5.9627  -13.4000   29.8443 C   0  0  0  0  0  0  0  0  0  0  0  0
   -6.6187  -14.3324   29.1383 C   0  0  0  0  0  0  0  0  0  0  0  0
   -7.5217  -14.2397   27.8079 C   0  0  0  0  0  0  0  0  0  0  0  0
   -7.3943  -13.3300   26.7585 C   0  0  0  0  0  0  0  0  0  0  0  0
   -8.1233  -13.2864   25.5943 N   0  0  0  0  0  0  0  0  0  0  0  0
   -9.0127  -14.2615   25.4061 C   0  0  0  0  0  0  0  0  0  0  0  0
   -9.1434  -15.3082   26.2014 N   0  0  0  0  0  0  0  0  0  0  0  0
   -8.3400  -15.2619   27.3082 C   0  0  0  0  0  0  0  0  0  0  0  0
   -5.8072  -15.3988   29.9936 C   0  0  0  0  0  0  0  0  0  0  0  0
   -5.8451  -16.8477   29.8818 C   0  0  0  0  0  0  0  0  0  0  0  0
   -6.7240  -17.8460   31.0686 C   0  0  0  0  0  0  0  0  0  0  0  0
   -6.6408  -17.4010   32.3090 C   0  0  0  0  0  0  0  0  0  0  0  0
   -6.1256  -15.7990   32.0546 C   0  0  0  0  0  0  0  0  0  0  0  0
   -5.7039  -14.7880   31.2655 C   0  0  0  0  0  0  0  0  0  0  0  0
   -6.7364  -10.8558   35.7529 H   0  0  0  0  0  0  0  0  0  0  0  0
   -4.9117   -9.9137   37.1353 H   0  0  0  0  0  0  0  0  0  0  0  0
   -2.8207   -9.0602   35.9954 H   0  0  0  0  0  0  0  0  0  0  0  0
   -2.9709   -8.6217   33.6407 H   0  0  0  0  0  0  0  0  0  0  0  0
   -5.2323   -8.8350   32.2439 H   0  0  0  0  0  0  0  0  0  0  0  0
   -5.4966  -12.5084   29.3535 H   0  0  0  0  0  0  0  0  0  0  0  0
   -6.6160  -12.5697   26.7584 H   0  0  0  0  0  0  0  0  0  0  0  0
   -9.6342  -14.2106   24.5215 H   0  0  0  0  0  0  0  0  0  0  0  0
   -8.2405  -16.2569   27.7486 H   0  0  0  0  0  0  0  0  0  0  0  0
   -6.0819  -17.3445   28.9126 H   0  0  0  0  0  0  0  0  0  0  0  0
   -7.2420  -18.7016   30.6859 H   0  0  0  0  0  0  0  0  0  0  0  0
   -7.3838  -17.7660   33.0007 H   0  0  0  0  0  0  0  0  0  0  0  0
   -7.2491  -15.2609   32.0864 H   0  0  0  0  0  0  0  0  0  0  0  0
  1  2  2  0
  2  3  2  0
  2  4  1  0
  4  5  2  0
  5  6  1  0
  6  7  2  0
  7  8  1  0
  8  9  2  0
  2 10  1  0
 10 11  1  0
 11 12  2  0
 12 13  1  0
 13 14  2  0
 14 15  1  0
 15 16  2  0
 16 17  1  0
 17 18  2  0
 12 19  1  0
 19 20  2  0
 20 21  1  0
 21 22  2  0
 22 23  1  0
 23 24  2  0
  9  4  1  0
 24 10  1  0
 18 13  1  0
 24 19  1  0
  5 25  1  0
  6 26  1  0
  7 27  1  0
  8 28  1  0
  9 29  1  0
 11 30  1  0
 14 31  1  0
 16 32  1  0
 18 33  1  0
 20 34  1  0
 21 35  1  0
 22 36  1  0
 23 37  1  0
M  END
>  <Energy>  (1323) 
604.00742459172181

>  <compound_id>  (1323) 
75266

>  <target_id>  (1323) 
1

>  <reference_id>  (1323) 
40

>  <inspiration_ids>  (1323) 
[40, 54]

>  <energy_score>  (1323) 
436.4876047524026

>  <distance_score>  (1323) 
8.999449451628076

>  <path>  (1323) 
/opt/xchem-fragalysis-2/maxwin/BulkDock/SCRATCH/511017/C75266-P40/C75266-P40.minimised.mol

>  <scratch_subdir>  (1323) 
/opt/xchem-fragalysis-2/maxwin/BulkDock/SCRATCH/511017/C75266-P40

>  <fragmenstein_runtime>  (1323) 
29.714559316635132

>  <fragmenstein_outcome>  (1323) 
too moved

>  <fragmenstein_mode>  (1323) 
expansion

>  <fragmenstein_error>  (1323) 


$$$$
C75266-P54
     RDKit          3D

 37 40  0  0  0  0  0  0  0  0999 V2000
   -7.0743  -10.8723   33.5793 O   0  0  0  0  0  0  0  0  0  0  0  0
   -6.4511  -12.1315   33.2780 S   0  0  0  0  0  0  0  0  0  0  0  0
   -5.9929  -12.7961   34.4863 O   0  0  0  0  0  0  0  0  0  0  0  0
   -4.4725  -11.0891   32.8864 C   0  0  0  0  0  0  0  0  0  0  0  0
   -4.1760   -9.9828   33.5394 C   0  0  0  0  0  0  0  0  0  0  0  0
   -3.6673   -8.8490   32.7836 C   0  0  0  0  0  0  0  0  0  0  0  0
   -2.6406   -9.1290   31.6548 C   0  0  0  0  0  0  0  0  0  0  0  0
   -2.1449  -10.4581   31.3865 C   0  0  0  0  0  0  0  0  0  0  0  0
   -3.2017  -11.2083   31.8027 C   0  0  0  0  0  0  0  0  0  0  0  0
   -7.9416  -13.1997   33.9991 N   0  0  0  0  0  0  0  0  0  0  0  0
   -8.9106  -13.8768   33.2489 C   0  0  0  0  0  0  0  0  0  0  0  0
  -10.0079  -14.2586   34.0514 C   0  0  0  0  0  0  0  0  0  0  0  0
  -11.0168  -15.3799   33.8824 C   0  0  0  0  0  0  0  0  0  0  0  0
  -12.3056  -15.3614   34.3706 C   0  0  0  0  0  0  0  0  0  0  0  0
  -13.1392  -16.4420   34.4469 N   0  0  0  0  0  0  0  0  0  0  0  0
  -12.6434  -17.6122   34.0084 C   0  0  0  0  0  0  0  0  0  0  0  0
  -11.4659  -17.7631   33.4058 N   0  0  0  0  0  0  0  0  0  0  0  0
  -10.7164  -16.6254   33.3422 C   0  0  0  0  0  0  0  0  0  0  0  0
   -9.7597  -13.6607   35.3304 C   0  0  0  0  0  0  0  0  0  0  0  0
  -10.4928  -13.7197   36.5476 C   0  0  0  0  0  0  0  0  0  0  0  0
   -9.9233  -13.3296   37.7525 C   0  0  0  0  0  0  0  0  0  0  0  0
   -8.6047  -12.9305   37.7736 C   0  0  0  0  0  0  0  0  0  0  0  0
   -7.8631  -12.8591   36.5909 C   0  0  0  0  0  0  0  0  0  0  0  0
   -8.4437  -13.1463   35.3354 C   0  0  0  0  0  0  0  0  0  0  0  0
   -3.8718  -10.0836   34.5749 H   0  0  0  0  0  0  0  0  0  0  0  0
   -3.6072   -7.8073   33.0325 H   0  0  0  0  0  0  0  0  0  0  0  0
   -2.1913   -8.1965   31.1884 H   0  0  0  0  0  0  0  0  0  0  0  0
   -1.3659  -10.6873   30.6835 H   0  0  0  0  0  0  0  0  0  0  0  0
   -3.0246  -12.1246   31.1535 H   0  0  0  0  0  0  0  0  0  0  0  0
   -8.7016  -13.9758   32.2141 H   0  0  0  0  0  0  0  0  0  0  0  0
  -12.7421  -14.4433   34.7516 H   0  0  0  0  0  0  0  0  0  0  0  0
  -13.2666  -18.4931   34.1145 H   0  0  0  0  0  0  0  0  0  0  0  0
   -9.7780  -16.7550   32.8153 H   0  0  0  0  0  0  0  0  0  0  0  0
  -11.4948  -14.1339   36.5804 H   0  0  0  0  0  0  0  0  0  0  0  0
  -10.4914  -13.4038   38.6748 H   0  0  0  0  0  0  0  0  0  0  0  0
   -8.1188  -12.7044   38.7196 H   0  0  0  0  0  0  0  0  0  0  0  0
   -6.7999  -12.6914   36.6897 H   0  0  0  0  0  0  0  0  0  0  0  0
  1  2  2  0
  2  3  2  0
  2  4  1  0
  4  5  2  0
  5  6  1  0
  6  7  2  0
  7  8  1  0
  8  9  2  0
  2 10  1  0
 10 11  1  0
 11 12  2  0
 12 13  1  0
 13 14  2  0
 14 15  1  0
 15 16  2  0
 16 17  1  0
 17 18  2  0
 12 19  1  0
 19 20  2  0
 20 21  1  0
 21 22  2  0
 22 23  1  0
 23 24  2  0
  9  4  1  0
 24 10  1  0
 18 13  1  0
 24 19  1  0
  5 25  1  0
  6 26  1  0
  7 27  1  0
  8 28  1  0
  9 29  1  0
 11 30  1  0
 14 31  1  0
 16 32  1  0
 18 33  1  0
 20 34  1  0
 21 35  1  0
 22 36  1  0
 23 37  1  0
M  END
>  <Energy>  (1324) 
504.77374579919297

>  <compound_id>  (1324) 
75266

>  <target_id>  (1324) 
1

>  <reference_id>  (1324) 
54

>  <inspiration_ids>  (1324) 
[40, 54]

>  <energy_score>  (1324) 
337.2539259598801

>  <distance_score>  (1324) 
8.300326199206918

>  <path>  (1324) 
/opt/xchem-fragalysis-2/maxwin/BulkDock/SCRATCH/511017/C75266-P54/C75266-P54.minimised.mol

>  <scratch_subdir>  (1324) 
/opt/xchem-fragalysis-2/maxwin/BulkDock/SCRATCH/511017/C75266-P54

>  <fragmenstein_runtime>  (1324) 
31.58236050605774

>  <fragmenstein_outcome>  (1324) 
too moved

>  <fragmenstein_mode>  (1324) 
expansion

>  <fragmenstein_error>  (1324) 


$$$$
C75267-P40
     RDKit          3D

 38 40  0  0  0  0  0  0  0  0999 V2000
   -4.8158  -20.6451   25.8462 C   0  0  0  0  0  0  0  0  0  0  0  0
   -5.7236  -19.7952   26.9940 C   0  0  0  0  0  0  0  0  0  0  0  0
   -5.2272  -18.0341   27.8056 N   0  0  0  0  0  0  0  0  0  0  0  0
   -4.3399  -16.3985   28.7861 C   0  0  0  0  0  0  0  0  0  0  0  0
   -2.9164  -14.7590   29.1663 C   0  0  0  0  0  0  0  0  0  0  0  0
   -2.6923  -12.6307   29.1804 C   0  0  0  0  0  0  0  0  0  0  0  0
   -2.7963  -11.9295   28.0053 C   0  0  0  0  0  0  0  0  0  0  0  0
   -1.7453  -11.0322   27.8466 N   0  0  0  0  0  0  0  0  0  0  0  0
   -1.0853  -10.2686   28.9447 C   0  0  0  0  0  0  0  0  0  0  0  0
   -0.3698   -8.9085   29.0765 C   0  0  0  0  0  0  0  0  0  0  0  0
   -0.2393   -8.1464   30.2170 C   0  0  0  0  0  0  0  0  0  0  0  0
   -0.8014   -8.6891   31.3021 C   0  0  0  0  0  0  0  0  0  0  0  0
   -1.4015   -9.9848   31.1506 C   0  0  0  0  0  0  0  0  0  0  0  0
   -1.6845  -11.0983   29.9092 C   0  0  0  0  0  0  0  0  0  0  0  0
   -7.0775  -21.1871   27.4851 C   0  0  0  0  0  0  0  0  0  0  0  0
   -8.3798  -21.0278   27.6774 C   0  0  0  0  0  0  0  0  0  0  0  0
   -9.8865  -21.8604   28.0995 N   0  0  0  0  0  0  0  0  0  0  0  0
   -9.7698  -23.1341   27.9675 C   0  0  0  0  0  0  0  0  0  0  0  0
   -8.4935  -23.4377   27.7668 N   0  0  0  0  0  0  0  0  0  0  0  0
   -7.2561  -22.4820   27.6920 C   0  0  0  0  0  0  0  0  0  0  0  0
   -4.7713  -21.6621   26.2402 H   0  0  0  0  0  0  0  0  0  0  0  0
   -4.1259  -19.9930   25.3810 H   0  0  0  0  0  0  0  0  0  0  0  0
   -5.0553  -21.0982   24.8835 H   0  0  0  0  0  0  0  0  0  0  0  0
   -6.1926  -19.3801   26.1678 H   0  0  0  0  0  0  0  0  0  0  0  0
   -4.2768  -18.1529   27.4415 H   0  0  0  0  0  0  0  0  0  0  0  0
   -5.3676  -15.9904   29.1630 H   0  0  0  0  0  0  0  0  0  0  0  0
   -4.5126  -16.6260   29.8744 H   0  0  0  0  0  0  0  0  0  0  0  0
   -2.0928  -15.0365   28.4989 H   0  0  0  0  0  0  0  0  0  0  0  0
   -2.7027  -14.9505   30.2271 H   0  0  0  0  0  0  0  0  0  0  0  0
   -3.1959  -12.2047   27.0333 H   0  0  0  0  0  0  0  0  0  0  0  0
   -1.7830  -10.6837   26.9141 H   0  0  0  0  0  0  0  0  0  0  0  0
   -0.1500   -8.2723   28.2276 H   0  0  0  0  0  0  0  0  0  0  0  0
    0.1936   -7.1542   30.2205 H   0  0  0  0  0  0  0  0  0  0  0  0
   -0.8461   -8.1662   32.2541 H   0  0  0  0  0  0  0  0  0  0  0  0
   -1.9886   -9.9777   32.0686 H   0  0  0  0  0  0  0  0  0  0  0  0
   -8.6729  -19.9619   28.1914 H   0  0  0  0  0  0  0  0  0  0  0  0
  -10.5666  -23.8445   28.0182 H   0  0  0  0  0  0  0  0  0  0  0  0
   -6.5135  -22.8238   28.4007 H   0  0  0  0  0  0  0  0  0  0  0  0
  1  2  1  0
  2  3  1  0
  3  4  1  0
  4  5  1  0
  5  6  1  0
  6  7  2  0
  7  8  1  0
  8  9  1  0
  9 10  2  0
 10 11  1  0
 11 12  2  0
 12 13  1  0
 13 14  2  0
  2 15  1  0
 15 16  2  0
 16 17  1  0
 17 18  2  0
 18 19  1  0
 19 20  2  0
 14  6  1  0
 20 15  1  0
 14  9  1  0
  1 21  1  0
  1 22  1  0
  1 23  1  0
  2 24  1  0
  3 25  1  0
  4 26  1  0
  4 27  1  0
  5 28  1  0
  5 29  1  0
  7 30  1  0
  8 31  1  0
 10 32  1  0
 11 33  1  0
 12 34  1  0
 13 35  1  0
 16 36  1  0
 18 37  1  0
 20 38  1  0
M  END
>  <Energy>  (1325) 
1110.9986377188727

>  <compound_id>  (1325) 
75267

>  <target_id>  (1325) 
1

>  <reference_id>  (1325) 
40

>  <inspiration_ids>  (1325) 
[40, 54]

>  <energy_score>  (1325) 
1056.2442669446716

>  <distance_score>  (1325) 
4.917941292050573

>  <path>  (1325) 
/opt/xchem-fragalysis-2/maxwin/BulkDock/SCRATCH/511017/C75267-P40/C75267-P40.minimised.mol

>  <scratch_subdir>  (1325) 
/opt/xchem-fragalysis-2/maxwin/BulkDock/SCRATCH/511017/C75267-P40

>  <fragmenstein_runtime>  (1325) 
13.367433786392212

>  <fragmenstein_outcome>  (1325) 
too moved

>  <fragmenstein_mode>  (1325) 
expansion

>  <fragmenstein_error>  (1325) 


$$$$
C75267-P54
     RDKit          3D

 38 40  0  0  0  0  0  0  0  0999 V2000
   -8.9443  -19.0073   27.2119 C   0  0  0  0  0  0  0  0  0  0  0  0
   -8.2959  -17.0744   27.5155 C   0  0  0  0  0  0  0  0  0  0  0  0
   -7.1682  -15.2335   27.0050 N   0  0  0  0  0  0  0  0  0  0  0  0
   -6.0868  -13.3392   27.5987 C   0  0  0  0  0  0  0  0  0  0  0  0
   -4.9676  -11.2511   27.7583 C   0  0  0  0  0  0  0  0  0  0  0  0
   -3.4529   -9.5509   27.5533 C   0  0  0  0  0  0  0  0  0  0  0  0
   -2.8243   -8.8740   26.4024 C   0  0  0  0  0  0  0  0  0  0  0  0
   -1.5106   -7.6849   26.2976 N   0  0  0  0  0  0  0  0  0  0  0  0
   -0.2452   -7.8176   27.2092 C   0  0  0  0  0  0  0  0  0  0  0  0
    1.4437   -7.4318   28.4287 C   0  0  0  0  0  0  0  0  0  0  0  0
    2.0342   -5.9754   30.1042 C   0  0  0  0  0  0  0  0  0  0  0  0
   -0.0745   -5.3684   29.5453 C   0  0  0  0  0  0  0  0  0  0  0  0
   -1.8669   -6.2052   29.0388 C   0  0  0  0  0  0  0  0  0  0  0  0
   -2.0781   -7.9133   27.9807 C   0  0  0  0  0  0  0  0  0  0  0  0
   -9.6495  -18.3654   28.7535 C   0  0  0  0  0  0  0  0  0  0  0  0
  -10.3150  -18.5707   30.1200 C   0  0  0  0  0  0  0  0  0  0  0  0
  -10.9435  -19.3517   31.2284 N   0  0  0  0  0  0  0  0  0  0  0  0
  -11.1860  -20.5988   30.8798 C   0  0  0  0  0  0  0  0  0  0  0  0
  -10.7585  -21.0333   29.7034 N   0  0  0  0  0  0  0  0  0  0  0  0
  -10.0218  -20.0663   28.8847 C   0  0  0  0  0  0  0  0  0  0  0  0
   -9.5593  -19.1241   26.3676 H   0  0  0  0  0  0  0  0  0  0  0  0
   -7.8651  -19.5203   27.1271 H   0  0  0  0  0  0  0  0  0  0  0  0
   -9.9303  -19.5790   27.2268 H   0  0  0  0  0  0  0  0  0  0  0  0
   -9.0243  -16.6469   26.8214 H   0  0  0  0  0  0  0  0  0  0  0  0
   -7.9474  -14.7752   26.5096 H   0  0  0  0  0  0  0  0  0  0  0  0
   -5.2485  -14.0644   27.7834 H   0  0  0  0  0  0  0  0  0  0  0  0
   -6.0193  -13.3581   28.6954 H   0  0  0  0  0  0  0  0  0  0  0  0
   -3.9425  -11.6671   27.7251 H   0  0  0  0  0  0  0  0  0  0  0  0
   -5.6524  -10.5320   27.3261 H   0  0  0  0  0  0  0  0  0  0  0  0
   -3.0948   -9.0404   25.3914 H   0  0  0  0  0  0  0  0  0  0  0  0
   -1.3148   -7.4266   25.3471 H   0  0  0  0  0  0  0  0  0  0  0  0
    1.9795   -8.4301   28.6180 H   0  0  0  0  0  0  0  0  0  0  0  0
    2.9108   -5.2669   30.1224 H   0  0  0  0  0  0  0  0  0  0  0  0
   -0.3566   -4.3138   29.9582 H   0  0  0  0  0  0  0  0  0  0  0  0
   -2.8038   -5.7399   29.3412 H   0  0  0  0  0  0  0  0  0  0  0  0
  -11.3781  -18.8099   29.5647 H   0  0  0  0  0  0  0  0  0  0  0  0
  -11.7031  -21.2632   31.5556 H   0  0  0  0  0  0  0  0  0  0  0  0
   -9.5041  -20.8178   28.2531 H   0  0  0  0  0  0  0  0  0  0  0  0
  1  2  1  0
  2  3  1  0
  3  4  1  0
  4  5  1  0
  5  6  1  0
  6  7  2  0
  7  8  1  0
  8  9  1  0
  9 10  2  0
 10 11  1  0
 11 12  2  0
 12 13  1  0
 13 14  2  0
  2 15  1  0
 15 16  2  0
 16 17  1  0
 17 18  2  0
 18 19  1  0
 19 20  2  0
 14  6  1  0
 20 15  1  0
 14  9  1  0
  1 21  1  0
  1 22  1  0
  1 23  1  0
  2 24  1  0
  3 25  1  0
  4 26  1  0
  4 27  1  0
  5 28  1  0
  5 29  1  0
  7 30  1  0
  8 31  1  0
 10 32  1  0
 11 33  1  0
 12 34  1  0
 13 35  1  0
 16 36  1  0
 18 37  1  0
 20 38  1  0
M  END
>  <Energy>  (1326) 
3743.3173505311538

>  <compound_id>  (1326) 
75267

>  <target_id>  (1326) 
1

>  <reference_id>  (1326) 
54

>  <inspiration_ids>  (1326) 
[40, 54]

>  <energy_score>  (1326) 
3688.5629797570073

>  <distance_score>  (1326) 
4.22999729246817

>  <path>  (1326) 
/opt/xchem-fragalysis-2/maxwin/BulkDock/SCRATCH/511017/C75267-P54/C75267-P54.minimised.mol

>  <scratch_subdir>  (1326) 
/opt/xchem-fragalysis-2/maxwin/BulkDock/SCRATCH/511017/C75267-P54

>  <fragmenstein_runtime>  (1326) 
8.22305417060852

>  <fragmenstein_outcome>  (1326) 
too moved

>  <fragmenstein_mode>  (1326) 
expansion

>  <fragmenstein_error>  (1326) 


$$$$
C75262-P40
     RDKit          3D

 38 40  0  0  0  0  0  0  0  0999 V2000
   -9.3281  -20.7078   27.6374 C   0  0  0  0  0  0  0  0  0  0  0  0
   -8.8963  -19.3505   28.3624 C   0  0  0  0  0  0  0  0  0  0  0  0
   -7.9721  -17.5427   28.2344 N   0  0  0  0  0  0  0  0  0  0  0  0
   -6.7400  -15.9323   28.6622 C   0  0  0  0  0  0  0  0  0  0  0  0
   -6.1396  -14.0019   29.4295 C   0  0  0  0  0  0  0  0  0  0  0  0
   -4.7647  -12.3657   29.1665 C   0  0  0  0  0  0  0  0  0  0  0  0
   -3.9210  -11.9746   28.0959 C   0  0  0  0  0  0  0  0  0  0  0  0
   -2.5611  -11.7038   28.2433 N   0  0  0  0  0  0  0  0  0  0  0  0
   -2.0983  -11.2113   29.4395 C   0  0  0  0  0  0  0  0  0  0  0  0
   -0.9583  -10.1273   29.9664 C   0  0  0  0  0  0  0  0  0  0  0  0
    0.0733   -9.1287   28.9152 Cl  0  0  0  0  0  0  0  0  0  0  0  0
   -0.9746   -9.2488   31.1474 C   0  0  0  0  0  0  0  0  0  0  0  0
   -2.1108   -9.0332   31.7934 C   0  0  0  0  0  0  0  0  0  0  0  0
   -3.1522   -9.7682   31.1570 C   0  0  0  0  0  0  0  0  0  0  0  0
   -3.3661  -11.2925   29.9864 C   0  0  0  0  0  0  0  0  0  0  0  0
  -10.4347  -20.5185   29.2810 C   0  0  0  0  0  0  0  0  0  0  0  0
  -11.8189  -20.2514   29.4632 C   0  0  0  0  0  0  0  0  0  0  0  0
  -12.7960  -21.0018   29.8890 N   0  0  0  0  0  0  0  0  0  0  0  0
  -12.2723  -22.1278   30.0485 C   0  0  0  0  0  0  0  0  0  0  0  0
  -11.6739  -22.6609   29.0566 N   0  0  0  0  0  0  0  0  0  0  0  0
  -10.5801  -22.0189   29.0366 C   0  0  0  0  0  0  0  0  0  0  0  0
  -10.3203  -21.2303   27.4879 H   0  0  0  0  0  0  0  0  0  0  0  0
   -9.8957  -20.5459   26.7648 H   0  0  0  0  0  0  0  0  0  0  0  0
   -8.2917  -21.2401   27.5556 H   0  0  0  0  0  0  0  0  0  0  0  0
   -9.4659  -18.5614   27.8593 H   0  0  0  0  0  0  0  0  0  0  0  0
   -7.0917  -18.1535   28.2844 H   0  0  0  0  0  0  0  0  0  0  0  0
   -7.6858  -15.4495   28.2787 H   0  0  0  0  0  0  0  0  0  0  0  0
   -6.0700  -16.4510   29.3856 H   0  0  0  0  0  0  0  0  0  0  0  0
   -6.3253  -14.0130   30.5101 H   0  0  0  0  0  0  0  0  0  0  0  0
   -6.9286  -13.6049   28.7914 H   0  0  0  0  0  0  0  0  0  0  0  0
   -4.0752  -12.1284   27.0722 H   0  0  0  0  0  0  0  0  0  0  0  0
   -2.1182  -11.4526   27.3756 H   0  0  0  0  0  0  0  0  0  0  0  0
   -0.1750   -8.5341   31.3507 H   0  0  0  0  0  0  0  0  0  0  0  0
   -2.2566   -8.2498   32.5170 H   0  0  0  0  0  0  0  0  0  0  0  0
   -4.0677   -9.1342   31.4143 H   0  0  0  0  0  0  0  0  0  0  0  0
  -12.3251  -19.4109   29.0317 H   0  0  0  0  0  0  0  0  0  0  0  0
  -11.8054  -22.3032   31.0128 H   0  0  0  0  0  0  0  0  0  0  0  0
   -9.8669  -22.6585   28.5024 H   0  0  0  0  0  0  0  0  0  0  0  0
  1  2  1  0
  2  3  1  0
  3  4  1  0
  4  5  1  0
  5  6  1  0
  6  7  2  0
  7  8  1  0
  8  9  1  0
  9 10  2  0
 10 11  1  0
 10 12  1  0
 12 13  2  0
 13 14  1  0
 14 15  2  0
  2 16  1  0
 16 17  2  0
 17 18  1  0
 18 19  2  0
 19 20  1  0
 20 21  2  0
 15  6  1  0
 21 16  1  0
 15  9  1  0
  1 22  1  0
  1 23  1  0
  1 24  1  0
  2 25  1  0
  3 26  1  0
  4 27  1  0
  4 28  1  0
  5 29  1  0
  5 30  1  0
  7 31  1  0
  8 32  1  0
 12 33  1  0
 13 34  1  0
 14 35  1  0
 17 36  1  0
 19 37  1  0
 21 38  1  0
M  END
>  <Energy>  (1327) 
1380.988334880459

>  <compound_id>  (1327) 
75262

>  <target_id>  (1327) 
1

>  <reference_id>  (1327) 
40

>  <inspiration_ids>  (1327) 
[40, 54]

>  <energy_score>  (1327) 
1332.0550491052868

>  <distance_score>  (1327) 
5.1612606080899175

>  <path>  (1327) 
/opt/xchem-fragalysis-2/maxwin/BulkDock/SCRATCH/511017/C75262-P40/C75262-P40.minimised.mol

>  <scratch_subdir>  (1327) 
/opt/xchem-fragalysis-2/maxwin/BulkDock/SCRATCH/511017/C75262-P40

>  <fragmenstein_runtime>  (1327) 
14.127042770385742

>  <fragmenstein_outcome>  (1327) 
too moved

>  <fragmenstein_mode>  (1327) 
expansion

>  <fragmenstein_error>  (1327) 


$$$$
C75262-P54
     RDKit          3D

 38 40  0  0  0  0  0  0  0  0999 V2000
   -9.7030  -18.1745   28.6475 C   0  0  0  0  0  0  0  0  0  0  0  0
   -7.8396  -17.1864   28.4974 C   0  0  0  0  0  0  0  0  0  0  0  0
   -6.8335  -15.6615   29.7552 N   0  0  0  0  0  0  0  0  0  0  0  0
   -5.4157  -14.0336   30.3712 C   0  0  0  0  0  0  0  0  0  0  0  0
   -3.4487  -12.8227   30.7979 C   0  0  0  0  0  0  0  0  0  0  0  0
   -2.1637  -10.9459   31.0541 C   0  0  0  0  0  0  0  0  0  0  0  0
   -0.9541  -10.8247   30.0875 C   0  0  0  0  0  0  0  0  0  0  0  0
    0.2298   -9.8337   30.2847 N   0  0  0  0  0  0  0  0  0  0  0  0
    0.2568   -8.7264   31.2775 C   0  0  0  0  0  0  0  0  0  0  0  0
    1.6307   -7.4451   31.4220 C   0  0  0  0  0  0  0  0  0  0  0  0
    3.1151   -8.3384   32.0033 Cl  0  0  0  0  0  0  0  0  0  0  0  0
    1.7211   -5.5132   30.5021 C   0  0  0  0  0  0  0  0  0  0  0  0
   -0.3081   -5.3252   29.7201 C   0  0  0  0  0  0  0  0  0  0  0  0
   -1.6050   -6.8597   30.3933 C   0  0  0  0  0  0  0  0  0  0  0  0
   -1.4957   -8.8517   30.9736 C   0  0  0  0  0  0  0  0  0  0  0  0
   -9.5296  -18.5231   29.3005 C   0  0  0  0  0  0  0  0  0  0  0  0
  -10.2709  -18.5378   30.8213 C   0  0  0  0  0  0  0  0  0  0  0  0
  -11.1398  -19.4539   31.3812 N   0  0  0  0  0  0  0  0  0  0  0  0
  -11.3973  -20.6015   30.7150 C   0  0  0  0  0  0  0  0  0  0  0  0
  -10.8914  -21.0373   29.5466 N   0  0  0  0  0  0  0  0  0  0  0  0
  -10.0208  -20.1842   28.9247 C   0  0  0  0  0  0  0  0  0  0  0  0
  -10.4346  -16.8684   28.3340 H   0  0  0  0  0  0  0  0  0  0  0  0
  -11.1637  -18.4633   28.8405 H   0  0  0  0  0  0  0  0  0  0  0  0
   -9.3435  -18.9421   27.4975 H   0  0  0  0  0  0  0  0  0  0  0  0
   -8.1388  -16.5575   27.5408 H   0  0  0  0  0  0  0  0  0  0  0  0
   -6.8155  -16.1656   30.6638 H   0  0  0  0  0  0  0  0  0  0  0  0
   -5.6859  -13.5803   29.4059 H   0  0  0  0  0  0  0  0  0  0  0  0
   -6.0037  -13.7426   31.2531 H   0  0  0  0  0  0  0  0  0  0  0  0
   -2.8725  -13.0423   29.8472 H   0  0  0  0  0  0  0  0  0  0  0  0
   -2.8283  -13.5865   31.2245 H   0  0  0  0  0  0  0  0  0  0  0  0
   -0.6820  -11.5686   29.3431 H   0  0  0  0  0  0  0  0  0  0  0  0
    1.0971  -10.0434   29.8326 H   0  0  0  0  0  0  0  0  0  0  0  0
    2.5173   -4.7548   30.5960 H   0  0  0  0  0  0  0  0  0  0  0  0
   -0.7669   -4.3374   29.5160 H   0  0  0  0  0  0  0  0  0  0  0  0
   -2.6401   -6.6401   30.0743 H   0  0  0  0  0  0  0  0  0  0  0  0
  -10.0978  -17.7561   31.5663 H   0  0  0  0  0  0  0  0  0  0  0  0
  -12.0918  -21.2752   31.2106 H   0  0  0  0  0  0  0  0  0  0  0  0
   -9.5562  -20.7154   28.1110 H   0  0  0  0  0  0  0  0  0  0  0  0
  1  2  1  0
  2  3  1  0
  3  4  1  0
  4  5  1  0
  5  6  1  0
  6  7  2  0
  7  8  1  0
  8  9  1  0
  9 10  2  0
 10 11  1  0
 10 12  1  0
 12 13  2  0
 13 14  1  0
 14 15  2  0
  2 16  1  0
 16 17  2  0
 17 18  1  0
 18 19  2  0
 19 20  1  0
 20 21  2  0
 15  6  1  0
 21 16  1  0
 15  9  1  0
  1 22  1  0
  1 23  1  0
  1 24  1  0
  2 25  1  0
  3 26  1  0
  4 27  1  0
  4 28  1  0
  5 29  1  0
  5 30  1  0
  7 31  1  0
  8 32  1  0
 12 33  1  0
 13 34  1  0
 14 35  1  0
 17 36  1  0
 19 37  1  0
 21 38  1  0
M  END
>  <Energy>  (1328) 
3203.6261806592406

>  <compound_id>  (1328) 
75262

>  <target_id>  (1328) 
1

>  <reference_id>  (1328) 
54

>  <inspiration_ids>  (1328) 
[40, 54]

>  <energy_score>  (1328) 
3154.6928948840887

>  <distance_score>  (1328) 
4.571372068212577

>  <path>  (1328) 
/opt/xchem-fragalysis-2/maxwin/BulkDock/SCRATCH/511017/C75262-P54/C75262-P54.minimised.mol

>  <scratch_subdir>  (1328) 
/opt/xchem-fragalysis-2/maxwin/BulkDock/SCRATCH/511017/C75262-P54

>  <fragmenstein_runtime>  (1328) 
11.012108325958252

>  <fragmenstein_outcome>  (1328) 
too moved

>  <fragmenstein_mode>  (1328) 
expansion

>  <fragmenstein_error>  (1328) 


$$$$
C75268-P40
     RDKit          3D

 45 47  0  0  0  0  0  0  0  0999 V2000
  -10.8476  -20.6912   20.0335 C   0  0  0  0  0  0  0  0  0  0  0  0
  -11.0596  -20.7867   21.5858 C   0  0  0  0  0  0  0  0  0  0  0  0
  -10.4264  -20.0266   23.1811 C   0  0  0  0  0  0  0  0  0  0  0  0
   -9.4213  -18.2072   22.9007 N   0  0  0  0  0  0  0  0  0  0  0  0
   -7.7662  -16.8853   22.9129 C   0  0  0  0  0  0  0  0  0  0  0  0
   -6.7966  -15.0924   23.8752 C   0  0  0  0  0  0  0  0  0  0  0  0
   -5.5969  -13.3329   23.7780 C   0  0  0  0  0  0  0  0  0  0  0  0
   -4.3226  -13.5990   23.6345 C   0  0  0  0  0  0  0  0  0  0  0  0
   -3.9214  -11.8769   24.0240 N   0  0  0  0  0  0  0  0  0  0  0  0
   -2.7424  -11.7336   25.0098 C   0  0  0  0  0  0  0  0  0  0  0  0
   -2.2648  -11.3512   26.8344 C   0  0  0  0  0  0  0  0  0  0  0  0
   -1.0850  -10.5480   27.8762 O   0  0  0  0  0  0  0  0  0  0  0  0
   -0.7988   -9.8807   29.1926 C   0  0  0  0  0  0  0  0  0  0  0  0
   -2.7579  -11.8692   27.9423 C   0  0  0  0  0  0  0  0  0  0  0  0
   -3.5078  -12.2726   27.0555 C   0  0  0  0  0  0  0  0  0  0  0  0
   -2.9559  -13.0695   25.9885 C   0  0  0  0  0  0  0  0  0  0  0  0
   -3.9099  -12.5626   24.6786 C   0  0  0  0  0  0  0  0  0  0  0  0
  -11.8163  -20.9463   24.0227 C   0  0  0  0  0  0  0  0  0  0  0  0
  -12.0102  -21.3998   25.3379 C   0  0  0  0  0  0  0  0  0  0  0  0
  -12.5675  -22.5757   25.8556 N   0  0  0  0  0  0  0  0  0  0  0  0
  -13.3899  -23.1996   25.0587 C   0  0  0  0  0  0  0  0  0  0  0  0
  -13.4870  -22.8825   23.7948 N   0  0  0  0  0  0  0  0  0  0  0  0
  -12.6126  -21.9059   23.3533 C   0  0  0  0  0  0  0  0  0  0  0  0
   -9.8381  -20.9131   19.6941 H   0  0  0  0  0  0  0  0  0  0  0  0
  -11.4935  -21.4259   19.5576 H   0  0  0  0  0  0  0  0  0  0  0  0
  -11.1303  -19.7087   19.6330 H   0  0  0  0  0  0  0  0  0  0  0  0
  -10.8801  -21.8545   21.7367 H   0  0  0  0  0  0  0  0  0  0  0  0
  -12.0407  -20.4394   21.6490 H   0  0  0  0  0  0  0  0  0  0  0  0
   -9.7347  -20.8780   23.0097 H   0  0  0  0  0  0  0  0  0  0  0  0
   -9.8100  -17.7162   23.7055 H   0  0  0  0  0  0  0  0  0  0  0  0
   -6.9861  -17.6859   22.9208 H   0  0  0  0  0  0  0  0  0  0  0  0
   -7.9607  -16.6701   21.8428 H   0  0  0  0  0  0  0  0  0  0  0  0
   -5.7173  -15.4195   23.9409 H   0  0  0  0  0  0  0  0  0  0  0  0
   -7.3323  -14.9233   24.8556 H   0  0  0  0  0  0  0  0  0  0  0  0
   -3.6033  -14.4475   23.4504 H   0  0  0  0  0  0  0  0  0  0  0  0
   -4.0333  -11.1711   23.2683 H   0  0  0  0  0  0  0  0  0  0  0  0
   -1.1674  -10.4236   30.0608 H   0  0  0  0  0  0  0  0  0  0  0  0
    0.2562   -9.7271   29.2827 H   0  0  0  0  0  0  0  0  0  0  0  0
   -0.9980   -8.7994   29.1722 H   0  0  0  0  0  0  0  0  0  0  0  0
   -2.7894  -11.6739   28.9736 H   0  0  0  0  0  0  0  0  0  0  0  0
   -4.5691  -12.0693   27.2561 H   0  0  0  0  0  0  0  0  0  0  0  0
   -1.9751  -13.5131   25.8417 H   0  0  0  0  0  0  0  0  0  0  0  0
  -11.5166  -21.0253   26.2106 H   0  0  0  0  0  0  0  0  0  0  0  0
  -13.9747  -24.0224   25.4280 H   0  0  0  0  0  0  0  0  0  0  0  0
  -12.6197  -22.0722   22.2887 H   0  0  0  0  0  0  0  0  0  0  0  0
  1  2  1  0
  2  3  1  0
  3  4  1  0
  4  5  1  0
  5  6  1  0
  6  7  1  0
  7  8  2  0
  8  9  1  0
  9 10  1  0
 10 11  2  0
 11 12  1  0
 12 13  1  0
 11 14  1  0
 14 15  2  0
 15 16  1  0
 16 17  2  0
  3 18  1  0
 18 19  2  0
 19 20  1  0
 20 21  2  0
 21 22  1  0
 22 23  2  0
 17  7  1  0
 23 18  1  0
 17 10  1  0
  1 24  1  0
  1 25  1  0
  1 26  1  0
  2 27  1  0
  2 28  1  0
  3 29  1  0
  4 30  1  0
  5 31  1  0
  5 32  1  0
  6 33  1  0
  6 34  1  0
  8 35  1  0
  9 36  1  0
 13 37  1  0
 13 38  1  0
 13 39  1  0
 14 40  1  0
 15 41  1  0
 16 42  1  0
 19 43  1  0
 21 44  1  0
 23 45  1  0
M  END
>  <Energy>  (1329) 
1848.3491670593269

>  <compound_id>  (1329) 
75268

>  <target_id>  (1329) 
1

>  <reference_id>  (1329) 
40

>  <inspiration_ids>  (1329) 
[40, 54]

>  <energy_score>  (1329) 
1790.2777466443645

>  <distance_score>  (1329) 
7.628839047698735

>  <path>  (1329) 
/opt/xchem-fragalysis-2/maxwin/BulkDock/SCRATCH/511017/C75268-P40/C75268-P40.minimised.mol

>  <scratch_subdir>  (1329) 
/opt/xchem-fragalysis-2/maxwin/BulkDock/SCRATCH/511017/C75268-P40

>  <fragmenstein_runtime>  (1329) 
21.858469009399414

>  <fragmenstein_outcome>  (1329) 
too moved

>  <fragmenstein_mode>  (1329) 
expansion

>  <fragmenstein_error>  (1329) 


$$$$
C75268-P54
     RDKit          3D

 45 47  0  0  0  0  0  0  0  0999 V2000
   -8.6079  -22.1883   28.1933 C   0  0  0  0  0  0  0  0  0  0  0  0
   -7.3973  -20.9262   27.5956 C   0  0  0  0  0  0  0  0  0  0  0  0
   -7.7919  -19.4309   27.1572 C   0  0  0  0  0  0  0  0  0  0  0  0
   -6.9710  -17.8022   26.3702 N   0  0  0  0  0  0  0  0  0  0  0  0
   -7.1417  -15.7128   26.9308 C   0  0  0  0  0  0  0  0  0  0  0  0
   -6.0299  -14.0679   27.7423 C   0  0  0  0  0  0  0  0  0  0  0  0
   -6.2576  -12.1401   28.1784 C   0  0  0  0  0  0  0  0  0  0  0  0
   -5.5477  -10.8961   27.8643 C   0  0  0  0  0  0  0  0  0  0  0  0
   -5.7904   -9.6965   28.6195 N   0  0  0  0  0  0  0  0  0  0  0  0
   -6.9454   -9.8233   29.5103 C   0  0  0  0  0  0  0  0  0  0  0  0
   -7.6908   -8.8727   30.4024 C   0  0  0  0  0  0  0  0  0  0  0  0
   -7.4981   -7.5054   30.3700 O   0  0  0  0  0  0  0  0  0  0  0  0
   -8.1547   -6.9559   29.2288 C   0  0  0  0  0  0  0  0  0  0  0  0
   -8.3910   -9.4323   31.5273 C   0  0  0  0  0  0  0  0  0  0  0  0
   -8.5410  -10.8475   31.7226 C   0  0  0  0  0  0  0  0  0  0  0  0
   -8.1038  -11.8501   30.7446 C   0  0  0  0  0  0  0  0  0  0  0  0
   -7.2324  -11.4346   29.4038 C   0  0  0  0  0  0  0  0  0  0  0  0
   -9.6318  -19.7797   27.9474 C   0  0  0  0  0  0  0  0  0  0  0  0
  -10.6741  -20.7411   27.5612 C   0  0  0  0  0  0  0  0  0  0  0  0
  -11.7258  -21.2918   28.3140 N   0  0  0  0  0  0  0  0  0  0  0  0
  -12.0188  -20.7043   29.4570 C   0  0  0  0  0  0  0  0  0  0  0  0
  -11.4611  -19.5647   29.7811 N   0  0  0  0  0  0  0  0  0  0  0  0
  -10.2047  -19.4894   29.2108 C   0  0  0  0  0  0  0  0  0  0  0  0
   -9.0787  -22.6947   27.3424 H   0  0  0  0  0  0  0  0  0  0  0  0
   -9.3707  -21.9637   28.9258 H   0  0  0  0  0  0  0  0  0  0  0  0
   -8.0658  -22.9389   28.8036 H   0  0  0  0  0  0  0  0  0  0  0  0
   -6.9337  -21.2322   26.6512 H   0  0  0  0  0  0  0  0  0  0  0  0
   -6.5871  -21.0264   28.3151 H   0  0  0  0  0  0  0  0  0  0  0  0
   -6.8298  -19.3970   27.5975 H   0  0  0  0  0  0  0  0  0  0  0  0
   -5.9567  -17.9972   26.4280 H   0  0  0  0  0  0  0  0  0  0  0  0
   -6.0426  -15.7950   26.9515 H   0  0  0  0  0  0  0  0  0  0  0  0
   -7.9608  -16.0089   27.5656 H   0  0  0  0  0  0  0  0  0  0  0  0
   -5.8343  -14.3307   28.7851 H   0  0  0  0  0  0  0  0  0  0  0  0
   -4.9628  -14.1961   27.6379 H   0  0  0  0  0  0  0  0  0  0  0  0
   -4.6410  -10.6452   27.3343 H   0  0  0  0  0  0  0  0  0  0  0  0
   -5.2097   -8.8899   28.5864 H   0  0  0  0  0  0  0  0  0  0  0  0
   -8.1188   -5.8659   29.3195 H   0  0  0  0  0  0  0  0  0  0  0  0
   -7.6391   -7.2272   28.3044 H   0  0  0  0  0  0  0  0  0  0  0  0
   -9.2087   -7.2526   29.1893 H   0  0  0  0  0  0  0  0  0  0  0  0
   -8.7993   -8.7519   32.2721 H   0  0  0  0  0  0  0  0  0  0  0  0
   -9.0449  -11.1985   32.6226 H   0  0  0  0  0  0  0  0  0  0  0  0
   -8.2218  -12.8799   31.0555 H   0  0  0  0  0  0  0  0  0  0  0  0
  -10.6982  -21.3741   26.6884 H   0  0  0  0  0  0  0  0  0  0  0  0
  -12.7636  -21.1392   30.1089 H   0  0  0  0  0  0  0  0  0  0  0  0
   -9.8985  -20.3457   29.8312 H   0  0  0  0  0  0  0  0  0  0  0  0
  1  2  1  0
  2  3  1  0
  3  4  1  0
  4  5  1  0
  5  6  1  0
  6  7  1  0
  7  8  2  0
  8  9  1  0
  9 10  1  0
 10 11  2  0
 11 12  1  0
 12 13  1  0
 11 14  1  0
 14 15  2  0
 15 16  1  0
 16 17  2  0
  3 18  1  0
 18 19  2  0
 19 20  1  0
 20 21  2  0
 21 22  1  0
 22 23  2  0
 17  7  1  0
 23 18  1  0
 17 10  1  0
  1 24  1  0
  1 25  1  0
  1 26  1  0
  2 27  1  0
  2 28  1  0
  3 29  1  0
  4 30  1  0
  5 31  1  0
  5 32  1  0
  6 33  1  0
  6 34  1  0
  8 35  1  0
  9 36  1  0
 13 37  1  0
 13 38  1  0
 13 39  1  0
 14 40  1  0
 15 41  1  0
 16 42  1  0
 19 43  1  0
 21 44  1  0
 23 45  1  0
M  END
>  <Energy>  (1330) 
929.741948558069

>  <compound_id>  (1330) 
75268

>  <target_id>  (1330) 
1

>  <reference_id>  (1330) 
54

>  <inspiration_ids>  (1330) 
[40, 54]

>  <energy_score>  (1330) 
871.6705281431219

>  <distance_score>  (1330) 
7.581403960756164

>  <path>  (1330) 
/opt/xchem-fragalysis-2/maxwin/BulkDock/SCRATCH/511017/C75268-P54/C75268-P54.minimised.mol

>  <scratch_subdir>  (1330) 
/opt/xchem-fragalysis-2/maxwin/BulkDock/SCRATCH/511017/C75268-P54

>  <fragmenstein_runtime>  (1330) 
19.862146854400635

>  <fragmenstein_outcome>  (1330) 
too moved

>  <fragmenstein_mode>  (1330) 
expansion

>  <fragmenstein_error>  (1330) 


$$$$
C75269-P40
     RDKit          3D

 47 50  0  0  0  0  0  0  0  0999 V2000
   -4.1217  -16.1853   31.0798 C   0  0  0  0  0  0  0  0  0  0  0  0
   -4.6208  -16.4104   29.1434 C   0  0  0  0  0  0  0  0  0  0  0  0
   -3.9950  -17.9860   27.9098 C   0  0  0  0  0  0  0  0  0  0  0  0
   -2.8087  -18.0112   27.4895 O   0  0  0  0  0  0  0  0  0  0  0  0
   -5.4141  -19.3264   27.7936 N   0  0  0  0  0  0  0  0  0  0  0  0
   -6.4023  -19.5613   26.8156 C   0  0  0  0  0  0  0  0  0  0  0  0
   -7.8949  -20.7864   27.6811 C   0  0  0  0  0  0  0  0  0  0  0  0
   -9.1516  -22.2442   28.3721 C   0  0  0  0  0  0  0  0  0  0  0  0
  -10.3170  -21.5616   30.0691 C   0  0  0  0  0  0  0  0  0  0  0  0
  -11.3811  -22.2527   30.6228 C   0  0  0  0  0  0  0  0  0  0  0  0
  -10.9087  -23.1644   31.9891 N   0  0  0  0  0  0  0  0  0  0  0  0
   -9.3934  -23.2390   32.6025 C   0  0  0  0  0  0  0  0  0  0  0  0
   -8.0805  -22.8800   33.9002 C   0  0  0  0  0  0  0  0  0  0  0  0
   -7.6204  -21.7392   34.6878 C   0  0  0  0  0  0  0  0  0  0  0  0
   -8.3135  -20.5555   34.6272 C   0  0  0  0  0  0  0  0  0  0  0  0
   -9.3553  -20.4481   33.6057 C   0  0  0  0  0  0  0  0  0  0  0  0
   -9.8456  -21.5679   32.1047 C   0  0  0  0  0  0  0  0  0  0  0  0
   -7.1889  -22.3125   27.8276 C   0  0  0  0  0  0  0  0  0  0  0  0
   -5.5235  -21.2683   27.1362 C   0  0  0  0  0  0  0  0  0  0  0  0
   -3.9046  -15.0810   30.2146 C   0  0  0  0  0  0  0  0  0  0  0  0
   -5.3884  -14.2965   30.4124 C   0  0  0  0  0  0  0  0  0  0  0  0
   -5.4971  -13.1660   29.6833 N   0  0  0  0  0  0  0  0  0  0  0  0
   -4.0473  -12.3473   29.1755 C   0  0  0  0  0  0  0  0  0  0  0  0
   -2.6647  -12.9019   29.2317 N   0  0  0  0  0  0  0  0  0  0  0  0
   -2.7385  -14.4891   29.4655 C   0  0  0  0  0  0  0  0  0  0  0  0
   -5.0737  -15.9496   31.6391 H   0  0  0  0  0  0  0  0  0  0  0  0
   -3.7050  -17.0426   31.6222 H   0  0  0  0  0  0  0  0  0  0  0  0
   -3.2251  -15.6270   31.6961 H   0  0  0  0  0  0  0  0  0  0  0  0
   -5.6702  -16.5765   29.4342 H   0  0  0  0  0  0  0  0  0  0  0  0
   -6.4287  -19.3254   25.7852 H   0  0  0  0  0  0  0  0  0  0  0  0
   -5.5017  -19.8170   26.1805 H   0  0  0  0  0  0  0  0  0  0  0  0
   -8.0241  -21.1118   26.7505 H   0  0  0  0  0  0  0  0  0  0  0  0
   -8.5147  -19.9256   28.2189 H   0  0  0  0  0  0  0  0  0  0  0  0
   -9.7247  -22.9987   27.8103 H   0  0  0  0  0  0  0  0  0  0  0  0
  -12.3537  -22.4683   30.2119 H   0  0  0  0  0  0  0  0  0  0  0  0
  -11.3395  -24.0510   32.0783 H   0  0  0  0  0  0  0  0  0  0  0  0
   -7.2875  -23.6436   33.8220 H   0  0  0  0  0  0  0  0  0  0  0  0
   -6.7219  -21.8307   35.2905 H   0  0  0  0  0  0  0  0  0  0  0  0
   -8.0519  -19.6977   35.2291 H   0  0  0  0  0  0  0  0  0  0  0  0
   -9.6524  -19.3741   33.4589 H   0  0  0  0  0  0  0  0  0  0  0  0
   -7.3707  -22.8816   26.9052 H   0  0  0  0  0  0  0  0  0  0  0  0
   -6.7991  -22.9323   28.6169 H   0  0  0  0  0  0  0  0  0  0  0  0
   -5.2137  -21.9946   27.9057 H   0  0  0  0  0  0  0  0  0  0  0  0
   -5.0373  -21.6199   26.1876 H   0  0  0  0  0  0  0  0  0  0  0  0
   -6.2472  -14.6488   30.9423 H   0  0  0  0  0  0  0  0  0  0  0  0
   -4.2355  -11.8408   28.2590 H   0  0  0  0  0  0  0  0  0  0  0  0
   -2.0391  -15.0463   28.8514 H   0  0  0  0  0  0  0  0  0  0  0  0
  1  2  1  0
  2  3  1  0
  3  4  2  0
  3  5  1  0
  5  6  1  0
  6  7  1  0
  7  8  1  0
  8  9  1  0
  9 10  2  0
 10 11  1  0
 11 12  1  0
 12 13  2  0
 13 14  1  0
 14 15  2  0
 15 16  1  0
 16 17  2  0
  8 18  1  0
 18 19  1  0
  2 20  1  0
 20 21  2  0
 21 22  1  0
 22 23  2  0
 23 24  1  0
 24 25  2  0
 19  5  1  0
 25 20  1  0
 17  9  1  0
 17 12  1  0
  1 26  1  0
  1 27  1  0
  1 28  1  0
  2 29  1  0
  6 30  1  0
  6 31  1  0
  7 32  1  0
  7 33  1  0
  8 34  1  0
 10 35  1  0
 11 36  1  0
 13 37  1  0
 14 38  1  0
 15 39  1  0
 16 40  1  0
 18 41  1  0
 18 42  1  0
 19 43  1  0
 19 44  1  0
 21 45  1  0
 23 46  1  0
 25 47  1  0
M  END
>  <Energy>  (1331) 
2039.5927165984199

>  <compound_id>  (1331) 
75269

>  <target_id>  (1331) 
1

>  <reference_id>  (1331) 
40

>  <inspiration_ids>  (1331) 
[40, 54]

>  <energy_score>  (1331) 
1983.7220110632525

>  <distance_score>  (1331) 
6.962043345776819

>  <path>  (1331) 
/opt/xchem-fragalysis-2/maxwin/BulkDock/SCRATCH/511017/C75269-P40/C75269-P40.minimised.mol

>  <scratch_subdir>  (1331) 
/opt/xchem-fragalysis-2/maxwin/BulkDock/SCRATCH/511017/C75269-P40

>  <fragmenstein_runtime>  (1331) 
41.77360796928406

>  <fragmenstein_outcome>  (1331) 
too moved

>  <fragmenstein_mode>  (1331) 
expansion

>  <fragmenstein_error>  (1331) 


$$$$
C75269-P54
     RDKit          3D

 47 50  0  0  0  0  0  0  0  0999 V2000
   -2.8171  -17.2021   25.7081 C   0  0  0  0  0  0  0  0  0  0  0  0
   -5.0020  -17.0964   26.1518 C   0  0  0  0  0  0  0  0  0  0  0  0
   -6.2786  -18.7159   26.8741 C   0  0  0  0  0  0  0  0  0  0  0  0
   -7.2934  -18.2704   27.1639 O   0  0  0  0  0  0  0  0  0  0  0  0
   -6.2682  -20.3967   27.4015 N   0  0  0  0  0  0  0  0  0  0  0  0
   -6.8347  -21.3980   26.3124 C   0  0  0  0  0  0  0  0  0  0  0  0
   -8.6519  -22.2992   26.9528 C   0  0  0  0  0  0  0  0  0  0  0  0
   -8.8221  -23.2192   28.2339 C   0  0  0  0  0  0  0  0  0  0  0  0
  -10.0705  -23.2870   29.0718 C   0  0  0  0  0  0  0  0  0  0  0  0
  -10.5121  -24.4824   29.6108 C   0  0  0  0  0  0  0  0  0  0  0  0
  -10.8039  -24.2076   30.9156 N   0  0  0  0  0  0  0  0  0  0  0  0
  -10.8648  -22.8526   31.1034 C   0  0  0  0  0  0  0  0  0  0  0  0
  -11.0202  -22.1037   32.2706 C   0  0  0  0  0  0  0  0  0  0  0  0
  -11.2411  -20.7423   32.1402 C   0  0  0  0  0  0  0  0  0  0  0  0
  -11.2363  -20.1575   30.8833 C   0  0  0  0  0  0  0  0  0  0  0  0
  -10.9236  -20.8893   29.7301 C   0  0  0  0  0  0  0  0  0  0  0  0
  -10.7064  -22.2697   29.8467 C   0  0  0  0  0  0  0  0  0  0  0  0
   -7.6913  -22.6980   29.0647 C   0  0  0  0  0  0  0  0  0  0  0  0
   -7.1801  -21.1796   28.1559 C   0  0  0  0  0  0  0  0  0  0  0  0
   -3.8734  -15.3162   26.1878 C   0  0  0  0  0  0  0  0  0  0  0  0
   -2.7752  -14.7607   25.5671 C   0  0  0  0  0  0  0  0  0  0  0  0
   -2.0695  -13.4567   25.7707 N   0  0  0  0  0  0  0  0  0  0  0  0
   -2.1295  -12.6063   26.8175 C   0  0  0  0  0  0  0  0  0  0  0  0
   -3.1851  -12.6961   27.6491 N   0  0  0  0  0  0  0  0  0  0  0  0
   -3.9564  -14.1000   27.2545 C   0  0  0  0  0  0  0  0  0  0  0  0
   -2.0571  -16.4875   25.4027 H   0  0  0  0  0  0  0  0  0  0  0  0
   -2.7209  -17.6294   24.6931 H   0  0  0  0  0  0  0  0  0  0  0  0
   -2.0561  -17.7582   26.2811 H   0  0  0  0  0  0  0  0  0  0  0  0
   -5.5254  -16.2478   26.4900 H   0  0  0  0  0  0  0  0  0  0  0  0
   -5.7959  -21.7436   26.1634 H   0  0  0  0  0  0  0  0  0  0  0  0
   -6.8626  -21.7088   25.2696 H   0  0  0  0  0  0  0  0  0  0  0  0
   -9.4577  -21.6372   27.3246 H   0  0  0  0  0  0  0  0  0  0  0  0
   -9.2097  -22.8456   26.1684 H   0  0  0  0  0  0  0  0  0  0  0  0
   -8.6351  -24.2673   27.9660 H   0  0  0  0  0  0  0  0  0  0  0  0
  -10.3666  -25.5020   29.2979 H   0  0  0  0  0  0  0  0  0  0  0  0
  -10.8897  -24.8995   31.6414 H   0  0  0  0  0  0  0  0  0  0  0  0
  -11.0161  -22.5554   33.2531 H   0  0  0  0  0  0  0  0  0  0  0  0
  -11.4185  -20.1367   33.0256 H   0  0  0  0  0  0  0  0  0  0  0  0
  -11.3546  -19.0885   30.8143 H   0  0  0  0  0  0  0  0  0  0  0  0
  -10.7915  -20.3745   28.7821 H   0  0  0  0  0  0  0  0  0  0  0  0
   -7.9139  -22.5774   30.1323 H   0  0  0  0  0  0  0  0  0  0  0  0
   -6.9384  -23.4734   29.0375 H   0  0  0  0  0  0  0  0  0  0  0  0
   -8.0561  -20.5576   28.1056 H   0  0  0  0  0  0  0  0  0  0  0  0
   -6.4964  -21.2411   28.9481 H   0  0  0  0  0  0  0  0  0  0  0  0
   -2.6246  -15.1667   24.5650 H   0  0  0  0  0  0  0  0  0  0  0  0
   -1.1960  -12.3823   27.3117 H   0  0  0  0  0  0  0  0  0  0  0  0
   -4.8280  -14.1174   27.9864 H   0  0  0  0  0  0  0  0  0  0  0  0
  1  2  1  0
  2  3  1  0
  3  4  2  0
  3  5  1  0
  5  6  1  0
  6  7  1  0
  7  8  1  0
  8  9  1  0
  9 10  2  0
 10 11  1  0
 11 12  1  0
 12 13  2  0
 13 14  1  0
 14 15  2  0
 15 16  1  0
 16 17  2  0
  8 18  1  0
 18 19  1  0
  2 20  1  0
 20 21  2  0
 21 22  1  0
 22 23  2  0
 23 24  1  0
 24 25  2  0
 19  5  1  0
 25 20  1  0
 17  9  1  0
 17 12  1  0
  1 26  1  0
  1 27  1  0
  1 28  1  0
  2 29  1  0
  6 30  1  0
  6 31  1  0
  7 32  1  0
  7 33  1  0
  8 34  1  0
 10 35  1  0
 11 36  1  0
 13 37  1  0
 14 38  1  0
 15 39  1  0
 16 40  1  0
 18 41  1  0
 18 42  1  0
 19 43  1  0
 19 44  1  0
 21 45  1  0
 23 46  1  0
 25 47  1  0
M  END
>  <Energy>  (1332) 
1118.1173500540772

>  <compound_id>  (1332) 
75269

>  <target_id>  (1332) 
1

>  <reference_id>  (1332) 
54

>  <inspiration_ids>  (1332) 
[40, 54]

>  <energy_score>  (1332) 
1062.246644518918

>  <distance_score>  (1332) 
6.483179251774191

>  <path>  (1332) 
/opt/xchem-fragalysis-2/maxwin/BulkDock/SCRATCH/511017/C75269-P54/C75269-P54.minimised.mol

>  <scratch_subdir>  (1332) 
/opt/xchem-fragalysis-2/maxwin/BulkDock/SCRATCH/511017/C75269-P54

>  <fragmenstein_runtime>  (1332) 
30.1438729763031

>  <fragmenstein_outcome>  (1332) 
too moved

>  <fragmenstein_mode>  (1332) 
expansion

>  <fragmenstein_error>  (1332) 


$$$$
C75270-P40
     RDKit          3D

 47 50  0  0  0  0  0  0  0  0999 V2000
   -7.2597  -22.9865   25.7014 O   0  0  0  0  0  0  0  0  0  0  0  0
   -7.4635  -22.7820   26.8545 C   0  0  0  0  0  0  0  0  0  0  0  0
   -6.1994  -22.0342   27.4878 C   0  0  0  0  0  0  0  0  0  0  0  0
   -4.7629  -21.3427   26.8262 C   0  0  0  0  0  0  0  0  0  0  0  0
   -3.6601  -21.2724   25.7859 C   0  0  0  0  0  0  0  0  0  0  0  0
   -2.4133  -20.7641   26.1979 C   0  0  0  0  0  0  0  0  0  0  0  0
   -1.3196  -20.5769   25.4237 N   0  0  0  0  0  0  0  0  0  0  0  0
   -1.4987  -20.9146   24.1483 C   0  0  0  0  0  0  0  0  0  0  0  0
   -2.6575  -21.3156   23.6022 N   0  0  0  0  0  0  0  0  0  0  0  0
   -3.7166  -21.4939   24.4392 C   0  0  0  0  0  0  0  0  0  0  0  0
   -8.7513  -23.2147   27.6417 N   0  0  0  0  0  0  0  0  0  0  0  0
  -10.3017  -22.1778   27.8564 C   0  0  0  0  0  0  0  0  0  0  0  0
  -10.9541  -22.3753   29.1749 C   0  0  0  0  0  0  0  0  0  0  0  0
  -10.4045  -23.7217   29.4932 C   0  0  0  0  0  0  0  0  0  0  0  0
  -10.0045  -24.1243   31.3971 C   0  0  0  0  0  0  0  0  0  0  0  0
   -8.8337  -25.0664   31.5692 C   0  0  0  0  0  0  0  0  0  0  0  0
   -9.0250  -25.0629   32.8298 N   0  0  0  0  0  0  0  0  0  0  0  0
   -8.6113  -23.8352   33.1239 C   0  0  0  0  0  0  0  0  0  0  0  0
   -7.3936  -23.0963   34.0894 C   0  0  0  0  0  0  0  0  0  0  0  0
   -7.3839  -21.7692   34.4707 C   0  0  0  0  0  0  0  0  0  0  0  0
   -8.3369  -21.0838   33.7706 C   0  0  0  0  0  0  0  0  0  0  0  0
   -9.4695  -21.7439   32.4291 C   0  0  0  0  0  0  0  0  0  0  0  0
   -9.7246  -23.2940   32.5003 C   0  0  0  0  0  0  0  0  0  0  0  0
  -10.7787  -24.5233   28.1994 C   0  0  0  0  0  0  0  0  0  0  0  0
   -9.8973  -24.0242   27.2116 C   0  0  0  0  0  0  0  0  0  0  0  0
   -5.9335  -22.4562   28.4431 H   0  0  0  0  0  0  0  0  0  0  0  0
   -5.6904  -22.5737   26.6648 H   0  0  0  0  0  0  0  0  0  0  0  0
   -4.1027  -21.8403   27.5658 H   0  0  0  0  0  0  0  0  0  0  0  0
   -5.0317  -20.2852   26.8504 H   0  0  0  0  0  0  0  0  0  0  0  0
   -2.2556  -20.4847   27.2348 H   0  0  0  0  0  0  0  0  0  0  0  0
   -0.6460  -20.8405   23.4832 H   0  0  0  0  0  0  0  0  0  0  0  0
   -4.6200  -21.8426   23.9499 H   0  0  0  0  0  0  0  0  0  0  0  0
   -9.9860  -21.1523   27.8673 H   0  0  0  0  0  0  0  0  0  0  0  0
  -11.0789  -22.2110   27.0626 H   0  0  0  0  0  0  0  0  0  0  0  0
  -12.0326  -22.3609   29.0390 H   0  0  0  0  0  0  0  0  0  0  0  0
  -10.8153  -21.5484   29.8610 H   0  0  0  0  0  0  0  0  0  0  0  0
   -9.5456  -24.3272   29.1370 H   0  0  0  0  0  0  0  0  0  0  0  0
   -8.2643  -25.7317   30.9231 H   0  0  0  0  0  0  0  0  0  0  0  0
   -9.8657  -25.4827   33.2005 H   0  0  0  0  0  0  0  0  0  0  0  0
   -6.5404  -23.6525   34.4274 H   0  0  0  0  0  0  0  0  0  0  0  0
   -6.6809  -21.3346   35.1599 H   0  0  0  0  0  0  0  0  0  0  0  0
   -8.4744  -20.0214   34.0442 H   0  0  0  0  0  0  0  0  0  0  0  0
  -10.1475  -21.1993   31.7861 H   0  0  0  0  0  0  0  0  0  0  0  0
  -11.7562  -24.2442   27.7608 H   0  0  0  0  0  0  0  0  0  0  0  0
  -10.5659  -25.6082   28.1755 H   0  0  0  0  0  0  0  0  0  0  0  0
   -9.4565  -24.8540   26.6791 H   0  0  0  0  0  0  0  0  0  0  0  0
  -10.4256  -23.7286   26.2884 H   0  0  0  0  0  0  0  0  0  0  0  0
  1  2  2  0
  2  3  1  0
  3  4  1  0
  4  5  1  0
  5  6  2  0
  6  7  1  0
  7  8  2  0
  8  9  1  0
  9 10  2  0
  2 11  1  0
 11 12  1  0
 12 13  1  0
 13 14  1  0
 14 15  1  0
 15 16  2  0
 16 17  1  0
 17 18  1  0
 18 19  2  0
 19 20  1  0
 20 21  2  0
 21 22  1  0
 22 23  2  0
 14 24  1  0
 24 25  1  0
 10  5  1  0
 25 11  1  0
 23 15  1  0
 23 18  1  0
  3 26  1  0
  3 27  1  0
  4 28  1  0
  4 29  1  0
  6 30  1  0
  8 31  1  0
 10 32  1  0
 12 33  1  0
 12 34  1  0
 13 35  1  0
 13 36  1  0
 14 37  1  0
 16 38  1  0
 17 39  1  0
 19 40  1  0
 20 41  1  0
 21 42  1  0
 22 43  1  0
 24 44  1  0
 24 45  1  0
 25 46  1  0
 25 47  1  0
M  END
>  <Energy>  (1333) 
633.38216146865375

>  <compound_id>  (1333) 
75270

>  <target_id>  (1333) 
1

>  <reference_id>  (1333) 
40

>  <inspiration_ids>  (1333) 
[40, 54]

>  <energy_score>  (1333) 
597.5916996394144

>  <distance_score>  (1333) 
9.806127236159453

>  <path>  (1333) 
/opt/xchem-fragalysis-2/maxwin/BulkDock/SCRATCH/511017/C75270-P40/C75270-P40.minimised.mol

>  <scratch_subdir>  (1333) 
/opt/xchem-fragalysis-2/maxwin/BulkDock/SCRATCH/511017/C75270-P40

>  <fragmenstein_runtime>  (1333) 
27.787569999694824

>  <fragmenstein_outcome>  (1333) 
too moved

>  <fragmenstein_mode>  (1333) 
expansion

>  <fragmenstein_error>  (1333) 


$$$$
C75270-P54
     RDKit          3D

 47 50  0  0  0  0  0  0  0  0999 V2000
   -9.0264  -17.6846   27.9584 O   0  0  0  0  0  0  0  0  0  0  0  0
   -8.0470  -17.5597   27.4028 C   0  0  0  0  0  0  0  0  0  0  0  0
   -7.7964  -15.7112   26.9358 C   0  0  0  0  0  0  0  0  0  0  0  0
   -8.1765  -13.8747   26.5844 C   0  0  0  0  0  0  0  0  0  0  0  0
   -7.3403  -12.3070   26.6637 C   0  0  0  0  0  0  0  0  0  0  0  0
   -6.4297  -11.9052   27.7730 C   0  0  0  0  0  0  0  0  0  0  0  0
   -5.6331  -10.8457   27.9885 N   0  0  0  0  0  0  0  0  0  0  0  0
   -5.5255  -10.0792   26.9703 C   0  0  0  0  0  0  0  0  0  0  0  0
   -6.3227  -10.3042   25.8020 N   0  0  0  0  0  0  0  0  0  0  0  0
   -7.1765  -11.4633   25.6477 C   0  0  0  0  0  0  0  0  0  0  0  0
   -7.2626  -19.2843   27.0564 N   0  0  0  0  0  0  0  0  0  0  0  0
   -6.1885  -20.2303   27.9351 C   0  0  0  0  0  0  0  0  0  0  0  0
   -6.6815  -21.8144   28.9823 C   0  0  0  0  0  0  0  0  0  0  0  0
   -8.2829  -22.6860   28.9854 C   0  0  0  0  0  0  0  0  0  0  0  0
   -9.0536  -22.8623   30.3250 C   0  0  0  0  0  0  0  0  0  0  0  0
   -8.9404  -23.9897   31.1076 C   0  0  0  0  0  0  0  0  0  0  0  0
   -9.3216  -23.7012   32.3798 N   0  0  0  0  0  0  0  0  0  0  0  0
   -9.9939  -22.5161   32.3807 C   0  0  0  0  0  0  0  0  0  0  0  0
  -10.5610  -21.8218   33.4509 C   0  0  0  0  0  0  0  0  0  0  0  0
  -11.3248  -20.7029   33.1549 C   0  0  0  0  0  0  0  0  0  0  0  0
  -11.5193  -20.3162   31.8369 C   0  0  0  0  0  0  0  0  0  0  0  0
  -10.8936  -20.9876   30.7770 C   0  0  0  0  0  0  0  0  0  0  0  0
  -10.0477  -22.0865   31.0478 C   0  0  0  0  0  0  0  0  0  0  0  0
   -8.9888  -21.9089   27.9032 C   0  0  0  0  0  0  0  0  0  0  0  0
   -7.6999  -20.7476   27.4871 C   0  0  0  0  0  0  0  0  0  0  0  0
   -6.7530  -15.5466   26.9243 H   0  0  0  0  0  0  0  0  0  0  0  0
   -8.4918  -15.8518   26.1067 H   0  0  0  0  0  0  0  0  0  0  0  0
   -8.5855  -13.8778   25.5597 H   0  0  0  0  0  0  0  0  0  0  0  0
   -7.1447  -13.9294   26.8794 H   0  0  0  0  0  0  0  0  0  0  0  0
   -6.1233  -12.6321   28.5203 H   0  0  0  0  0  0  0  0  0  0  0  0
   -4.5501   -9.6198   26.9105 H   0  0  0  0  0  0  0  0  0  0  0  0
   -7.6001  -11.5752   24.6783 H   0  0  0  0  0  0  0  0  0  0  0  0
   -5.7259  -20.8502   27.1078 H   0  0  0  0  0  0  0  0  0  0  0  0
   -5.1613  -19.8544   27.9144 H   0  0  0  0  0  0  0  0  0  0  0  0
   -6.4577  -21.7836   29.9908 H   0  0  0  0  0  0  0  0  0  0  0  0
   -5.9097  -22.4867   28.7904 H   0  0  0  0  0  0  0  0  0  0  0  0
   -8.0936  -23.7238   28.6796 H   0  0  0  0  0  0  0  0  0  0  0  0
   -8.4607  -24.9213   30.9088 H   0  0  0  0  0  0  0  0  0  0  0  0
   -9.1633  -24.2856   33.1879 H   0  0  0  0  0  0  0  0  0  0  0  0
  -10.4512  -22.1503   34.4772 H   0  0  0  0  0  0  0  0  0  0  0  0
  -11.8095  -20.1547   33.9595 H   0  0  0  0  0  0  0  0  0  0  0  0
  -12.1478  -19.4596   31.6328 H   0  0  0  0  0  0  0  0  0  0  0  0
  -11.0142  -20.5943   29.7733 H   0  0  0  0  0  0  0  0  0  0  0  0
   -9.9261  -21.4255   28.2010 H   0  0  0  0  0  0  0  0  0  0  0  0
   -9.2480  -22.5603   27.0625 H   0  0  0  0  0  0  0  0  0  0  0  0
   -7.4076  -21.2367   26.5536 H   0  0  0  0  0  0  0  0  0  0  0  0
   -8.5202  -20.2500   28.0017 H   0  0  0  0  0  0  0  0  0  0  0  0
  1  2  2  0
  2  3  1  0
  3  4  1  0
  4  5  1  0
  5  6  2  0
  6  7  1  0
  7  8  2  0
  8  9  1  0
  9 10  2  0
  2 11  1  0
 11 12  1  0
 12 13  1  0
 13 14  1  0
 14 15  1  0
 15 16  2  0
 16 17  1  0
 17 18  1  0
 18 19  2  0
 19 20  1  0
 20 21  2  0
 21 22  1  0
 22 23  2  0
 14 24  1  0
 24 25  1  0
 10  5  1  0
 25 11  1  0
 23 15  1  0
 23 18  1  0
  3 26  1  0
  3 27  1  0
  4 28  1  0
  4 29  1  0
  6 30  1  0
  8 31  1  0
 10 32  1  0
 12 33  1  0
 12 34  1  0
 13 35  1  0
 13 36  1  0
 14 37  1  0
 16 38  1  0
 17 39  1  0
 19 40  1  0
 20 41  1  0
 21 42  1  0
 22 43  1  0
 24 44  1  0
 24 45  1  0
 25 46  1  0
 25 47  1  0
M  END
>  <Energy>  (1334) 
799.15712492023465

>  <compound_id>  (1334) 
75270

>  <target_id>  (1334) 
1

>  <reference_id>  (1334) 
54

>  <inspiration_ids>  (1334) 
[40, 54]

>  <energy_score>  (1334) 
763.3666630910009

>  <distance_score>  (1334) 
6.470674002948487

>  <path>  (1334) 
/opt/xchem-fragalysis-2/maxwin/BulkDock/SCRATCH/511017/C75270-P54/C75270-P54.minimised.mol

>  <scratch_subdir>  (1334) 
/opt/xchem-fragalysis-2/maxwin/BulkDock/SCRATCH/511017/C75270-P54

>  <fragmenstein_runtime>  (1334) 
37.833784103393555

>  <fragmenstein_outcome>  (1334) 
too moved

>  <fragmenstein_mode>  (1334) 
expansion

>  <fragmenstein_error>  (1334) 


$$$$
C75271-P40
     RDKit          3D

 38 40  0  0  0  0  0  0  0  0999 V2000
  -11.7423  -18.6124   33.9957 C   0  0  0  0  0  0  0  0  0  0  0  0
  -10.3433  -19.5410   32.9409 N   0  0  0  0  0  0  0  0  0  0  0  0
   -9.5940  -17.9375   33.4755 C   0  0  0  0  0  0  0  0  0  0  0  0
   -9.8571  -16.3034   33.7479 C   0  0  0  0  0  0  0  0  0  0  0  0
  -10.0861  -15.2077   32.9426 C   0  0  0  0  0  0  0  0  0  0  0  0
   -8.6109  -14.5684   31.9514 C   0  0  0  0  0  0  0  0  0  0  0  0
   -7.1058  -14.3099   31.4246 C   0  0  0  0  0  0  0  0  0  0  0  0
   -6.4873  -13.1347   31.9364 C   0  0  0  0  0  0  0  0  0  0  0  0
   -7.0217  -12.1008   32.5686 C   0  0  0  0  0  0  0  0  0  0  0  0
   -8.2122  -12.4462   33.0936 C   0  0  0  0  0  0  0  0  0  0  0  0
   -9.1855  -13.7219   32.7426 C   0  0  0  0  0  0  0  0  0  0  0  0
   -9.1021  -15.4607   32.8459 N   0  0  0  0  0  0  0  0  0  0  0  0
  -10.8355  -20.3302   31.1795 C   0  0  0  0  0  0  0  0  0  0  0  0
  -10.8012  -19.7980   30.0459 O   0  0  0  0  0  0  0  0  0  0  0  0
  -11.2093  -21.8481   30.9640 C   0  0  0  0  0  0  0  0  0  0  0  0
  -11.3088  -22.7410   31.7449 O   0  0  0  0  0  0  0  0  0  0  0  0
  -11.2984  -21.8445   29.3624 N   0  0  0  0  0  0  0  0  0  0  0  0
  -11.4223  -22.9184   28.4344 C   0  0  0  0  0  0  0  0  0  0  0  0
  -12.1281  -22.6872   27.2843 C   0  0  0  0  0  0  0  0  0  0  0  0
  -12.4245  -23.5799   26.3094 N   0  0  0  0  0  0  0  0  0  0  0  0
  -11.7415  -24.7039   26.3902 C   0  0  0  0  0  0  0  0  0  0  0  0
  -10.6626  -24.8496   27.1191 N   0  0  0  0  0  0  0  0  0  0  0  0
  -10.5434  -23.9278   28.1108 C   0  0  0  0  0  0  0  0  0  0  0  0
  -12.6953  -19.1333   34.0764 H   0  0  0  0  0  0  0  0  0  0  0  0
  -11.3756  -18.7741   35.0560 H   0  0  0  0  0  0  0  0  0  0  0  0
  -11.8567  -17.5456   34.1925 H   0  0  0  0  0  0  0  0  0  0  0  0
   -9.6533  -18.1748   34.5597 H   0  0  0  0  0  0  0  0  0  0  0  0
   -8.4966  -18.1632   33.5517 H   0  0  0  0  0  0  0  0  0  0  0  0
  -11.1470  -14.8677   32.9591 H   0  0  0  0  0  0  0  0  0  0  0  0
   -6.3043  -15.0395   31.2378 H   0  0  0  0  0  0  0  0  0  0  0  0
   -5.8027  -13.3510   32.7657 H   0  0  0  0  0  0  0  0  0  0  0  0
   -6.3574  -11.3994   33.0545 H   0  0  0  0  0  0  0  0  0  0  0  0
   -8.3784  -11.9273   34.0416 H   0  0  0  0  0  0  0  0  0  0  0  0
   -8.4174  -16.1531   32.4283 H   0  0  0  0  0  0  0  0  0  0  0  0
  -11.2496  -20.8779   29.0136 H   0  0  0  0  0  0  0  0  0  0  0  0
  -12.5404  -21.7144   27.1316 H   0  0  0  0  0  0  0  0  0  0  0  0
  -12.0720  -25.5590   25.8234 H   0  0  0  0  0  0  0  0  0  0  0  0
   -9.6530  -24.1601   28.6259 H   0  0  0  0  0  0  0  0  0  0  0  0
  1  2  1  0
  2  3  1  0
  3  4  1  0
  4  5  2  0
  5  6  1  0
  6  7  2  0
  7  8  1  0
  8  9  2  0
  9 10  1  0
 10 11  2  0
 11 12  1  0
  2 13  1  0
 13 14  2  0
 13 15  1  0
 15 16  2  0
 15 17  1  0
 17 18  1  0
 18 19  2  0
 19 20  1  0
 20 21  2  0
 21 22  1  0
 22 23  2  0
 12  4  1  0
 23 18  1  0
 11  6  1  0
  1 24  1  0
  1 25  1  0
  1 26  1  0
  3 27  1  0
  3 28  1  0
  5 29  1  0
  7 30  1  0
  8 31  1  0
  9 32  1  0
 10 33  1  0
 12 34  1  0
 17 35  1  0
 19 36  1  0
 21 37  1  0
 23 38  1  0
M  END
>  <Energy>  (1335) 
1057.7189773192317

>  <compound_id>  (1335) 
75271

>  <target_id>  (1335) 
1

>  <reference_id>  (1335) 
40

>  <inspiration_ids>  (1335) 
[40, 54]

>  <energy_score>  (1335) 
960.3460931766606

>  <distance_score>  (1335) 
10.86232489339133

>  <path>  (1335) 
/opt/xchem-fragalysis-2/maxwin/BulkDock/SCRATCH/511017/C75271-P40/C75271-P40.minimised.mol

>  <scratch_subdir>  (1335) 
/opt/xchem-fragalysis-2/maxwin/BulkDock/SCRATCH/511017/C75271-P40

>  <fragmenstein_runtime>  (1335) 
24.3801429271698

>  <fragmenstein_outcome>  (1335) 
too moved

>  <fragmenstein_mode>  (1335) 
expansion

>  <fragmenstein_error>  (1335) 


$$$$
C75271-P54
     RDKit          3D

 38 40  0  0  0  0  0  0  0  0999 V2000
   -6.0468  -13.1121   31.8070 C   0  0  0  0  0  0  0  0  0  0  0  0
   -5.0683  -13.8563   30.9386 N   0  0  0  0  0  0  0  0  0  0  0  0
   -3.8344  -12.4452   31.4906 C   0  0  0  0  0  0  0  0  0  0  0  0
   -3.1087  -10.6600   31.7986 C   0  0  0  0  0  0  0  0  0  0  0  0
   -1.8548   -9.7177   31.1741 C   0  0  0  0  0  0  0  0  0  0  0  0
   -2.3237   -7.8736   31.2559 C   0  0  0  0  0  0  0  0  0  0  0  0
   -2.4237   -6.7130   30.2742 C   0  0  0  0  0  0  0  0  0  0  0  0
   -2.9529   -5.4472   30.4162 C   0  0  0  0  0  0  0  0  0  0  0  0
   -3.8197   -5.3083   31.4366 C   0  0  0  0  0  0  0  0  0  0  0  0
   -4.1306   -6.4037   32.2591 C   0  0  0  0  0  0  0  0  0  0  0  0
   -3.3371   -7.7696   32.3718 C   0  0  0  0  0  0  0  0  0  0  0  0
   -3.8387   -9.3322   32.7119 N   0  0  0  0  0  0  0  0  0  0  0  0
   -5.7875  -14.1403   29.3289 C   0  0  0  0  0  0  0  0  0  0  0  0
   -5.7321  -13.4778   28.3338 O   0  0  0  0  0  0  0  0  0  0  0  0
   -6.8629  -15.8762   29.3236 C   0  0  0  0  0  0  0  0  0  0  0  0
   -6.6177  -16.5085   30.3542 O   0  0  0  0  0  0  0  0  0  0  0  0
   -8.0375  -16.4410   27.9092 N   0  0  0  0  0  0  0  0  0  0  0  0
   -9.0520  -18.0373   27.6980 C   0  0  0  0  0  0  0  0  0  0  0  0
  -10.0619  -18.6129   29.1301 C   0  0  0  0  0  0  0  0  0  0  0  0
  -10.9618  -19.6424   29.8431 N   0  0  0  0  0  0  0  0  0  0  0  0
  -10.8599  -20.8621   29.4191 C   0  0  0  0  0  0  0  0  0  0  0  0
  -10.0716  -21.0159   28.4134 N   0  0  0  0  0  0  0  0  0  0  0  0
   -9.6048  -19.6642   27.8454 C   0  0  0  0  0  0  0  0  0  0  0  0
   -6.2477  -13.9137   32.5422 H   0  0  0  0  0  0  0  0  0  0  0  0
   -6.0386  -12.2789   32.5113 H   0  0  0  0  0  0  0  0  0  0  0  0
   -7.0512  -13.1024   31.3789 H   0  0  0  0  0  0  0  0  0  0  0  0
   -4.4730  -11.6956   31.9664 H   0  0  0  0  0  0  0  0  0  0  0  0
   -2.9190  -12.7331   30.9600 H   0  0  0  0  0  0  0  0  0  0  0  0
   -1.1119  -10.0719   30.4523 H   0  0  0  0  0  0  0  0  0  0  0  0
   -2.3613   -6.9410   29.2125 H   0  0  0  0  0  0  0  0  0  0  0  0
   -2.8666   -4.6978   29.6376 H   0  0  0  0  0  0  0  0  0  0  0  0
   -4.4073   -4.4143   31.5173 H   0  0  0  0  0  0  0  0  0  0  0  0
   -5.0226   -6.1635   32.8207 H   0  0  0  0  0  0  0  0  0  0  0  0
   -4.0056   -9.5715   33.6722 H   0  0  0  0  0  0  0  0  0  0  0  0
   -7.9972  -15.7922   27.1603 H   0  0  0  0  0  0  0  0  0  0  0  0
  -10.0967  -18.0783   30.0896 H   0  0  0  0  0  0  0  0  0  0  0  0
  -11.3675  -21.6819   29.8938 H   0  0  0  0  0  0  0  0  0  0  0  0
  -10.3669  -19.8180   27.0039 H   0  0  0  0  0  0  0  0  0  0  0  0
  1  2  1  0
  2  3  1  0
  3  4  1  0
  4  5  2  0
  5  6  1  0
  6  7  2  0
  7  8  1  0
  8  9  2  0
  9 10  1  0
 10 11  2  0
 11 12  1  0
  2 13  1  0
 13 14  2  0
 13 15  1  0
 15 16  2  0
 15 17  1  0
 17 18  1  0
 18 19  2  0
 19 20  1  0
 20 21  2  0
 21 22  1  0
 22 23  2  0
 12  4  1  0
 23 18  1  0
 11  6  1  0
  1 24  1  0
  1 25  1  0
  1 26  1  0
  3 27  1  0
  3 28  1  0
  5 29  1  0
  7 30  1  0
  8 31  1  0
  9 32  1  0
 10 33  1  0
 12 34  1  0
 17 35  1  0
 19 36  1  0
 21 37  1  0
 23 38  1  0
M  END
>  <Energy>  (1336) 
1154.1577418773895

>  <compound_id>  (1336) 
75271

>  <target_id>  (1336) 
1

>  <reference_id>  (1336) 
54

>  <inspiration_ids>  (1336) 
[40, 54]

>  <energy_score>  (1336) 
1056.7848577348293

>  <distance_score>  (1336) 
5.7499199257409686

>  <path>  (1336) 
/opt/xchem-fragalysis-2/maxwin/BulkDock/SCRATCH/511017/C75271-P54/C75271-P54.minimised.mol

>  <scratch_subdir>  (1336) 
/opt/xchem-fragalysis-2/maxwin/BulkDock/SCRATCH/511017/C75271-P54

>  <fragmenstein_runtime>  (1336) 
14.023303031921387

>  <fragmenstein_outcome>  (1336) 
too moved

>  <fragmenstein_mode>  (1336) 
expansion

>  <fragmenstein_error>  (1336) 


$$$$
C75272-P40
     RDKit          3D

 39 41  0  0  0  0  0  0  0  0999 V2000
   -7.2950  -17.1513   28.1676 O   0  0  0  0  0  0  0  0  0  0  0  0
   -8.3634  -16.9534   27.6245 C   0  0  0  0  0  0  0  0  0  0  0  0
   -8.5402  -15.3398   26.8943 C   0  0  0  0  0  0  0  0  0  0  0  0
   -7.4680  -13.7576   27.2686 C   0  0  0  0  0  0  0  0  0  0  0  0
   -6.0926  -12.4521   26.8182 C   0  0  0  0  0  0  0  0  0  0  0  0
   -4.1792  -12.1080   27.3479 C   0  0  0  0  0  0  0  0  0  0  0  0
   -3.0581  -12.4062   26.4727 C   0  0  0  0  0  0  0  0  0  0  0  0
   -2.2339  -11.4267   26.7597 N   0  0  0  0  0  0  0  0  0  0  0  0
   -1.8315  -11.0989   28.0096 C   0  0  0  0  0  0  0  0  0  0  0  0
   -0.7353   -9.9422   28.8074 C   0  0  0  0  0  0  0  0  0  0  0  0
   -0.6674   -9.3059   29.9667 C   0  0  0  0  0  0  0  0  0  0  0  0
   -1.3756  -10.1921   30.5689 C   0  0  0  0  0  0  0  0  0  0  0  0
   -2.3927  -11.3457   29.7471 C   0  0  0  0  0  0  0  0  0  0  0  0
   -2.9092  -11.7986   28.5581 C   0  0  0  0  0  0  0  0  0  0  0  0
   -9.2041  -18.1392   27.6012 O   0  0  0  0  0  0  0  0  0  0  0  0
   -9.2467  -19.9470   28.1246 C   0  0  0  0  0  0  0  0  0  0  0  0
  -10.4131  -21.4351   28.0353 C   0  0  0  0  0  0  0  0  0  0  0  0
  -11.6050  -21.5554   27.4385 C   0  0  0  0  0  0  0  0  0  0  0  0
  -12.6149  -21.3779   28.2771 N   0  0  0  0  0  0  0  0  0  0  0  0
  -12.3823  -21.4572   29.5838 C   0  0  0  0  0  0  0  0  0  0  0  0
  -11.2838  -21.9575   30.0293 N   0  0  0  0  0  0  0  0  0  0  0  0
  -10.5687  -22.3247   28.9968 C   0  0  0  0  0  0  0  0  0  0  0  0
   -9.5737  -15.0188   26.9930 H   0  0  0  0  0  0  0  0  0  0  0  0
   -8.4209  -15.5103   25.8191 H   0  0  0  0  0  0  0  0  0  0  0  0
   -7.3021  -13.9494   26.2055 H   0  0  0  0  0  0  0  0  0  0  0  0
   -8.3652  -13.1923   27.3221 H   0  0  0  0  0  0  0  0  0  0  0  0
   -6.3475  -11.5371   26.2413 H   0  0  0  0  0  0  0  0  0  0  0  0
   -6.2055  -12.6842   25.7395 H   0  0  0  0  0  0  0  0  0  0  0  0
   -2.9413  -12.7123   25.4515 H   0  0  0  0  0  0  0  0  0  0  0  0
   -2.0053  -10.8699   25.9717 H   0  0  0  0  0  0  0  0  0  0  0  0
    0.1846   -9.5336   28.4912 H   0  0  0  0  0  0  0  0  0  0  0  0
   -0.0294   -8.5387   30.3509 H   0  0  0  0  0  0  0  0  0  0  0  0
   -1.4086  -10.0563   31.6494 H   0  0  0  0  0  0  0  0  0  0  0  0
   -1.6391  -11.9665   30.1684 H   0  0  0  0  0  0  0  0  0  0  0  0
   -8.5018  -19.6075   28.7916 H   0  0  0  0  0  0  0  0  0  0  0  0
   -8.3422  -20.7299   27.6906 H   0  0  0  0  0  0  0  0  0  0  0  0
  -11.8481  -21.4317   26.3971 H   0  0  0  0  0  0  0  0  0  0  0  0
  -13.1620  -21.2223   30.2628 H   0  0  0  0  0  0  0  0  0  0  0  0
  -10.6048  -23.3866   28.7392 H   0  0  0  0  0  0  0  0  0  0  0  0
  1  2  2  0
  2  3  1  0
  3  4  1  0
  4  5  1  0
  5  6  1  0
  6  7  2  0
  7  8  1  0
  8  9  1  0
  9 10  2  0
 10 11  1  0
 11 12  2  0
 12 13  1  0
 13 14  2  0
  2 15  1  0
 15 16  1  0
 16 17  1  0
 17 18  2  0
 18 19  1  0
 19 20  2  0
 20 21  1  0
 21 22  2  0
 14  6  1  0
 22 17  1  0
 14  9  1  0
  3 23  1  0
  3 24  1  0
  4 25  1  0
  4 26  1  0
  5 27  1  0
  5 28  1  0
  7 29  1  0
  8 30  1  0
 10 31  1  0
 11 32  1  0
 12 33  1  0
 13 34  1  0
 16 35  1  0
 16 36  1  0
 18 37  1  0
 20 38  1  0
 22 39  1  0
M  END
>  <Energy>  (1337) 
886.30233700987151

>  <compound_id>  (1337) 
75272

>  <target_id>  (1337) 
1

>  <reference_id>  (1337) 
40

>  <inspiration_ids>  (1337) 
[40, 54]

>  <energy_score>  (1337) 
865.9254898085873

>  <distance_score>  (1337) 
5.103702806490671

>  <path>  (1337) 
/opt/xchem-fragalysis-2/maxwin/BulkDock/SCRATCH/511017/C75272-P40/C75272-P40.minimised.mol

>  <scratch_subdir>  (1337) 
/opt/xchem-fragalysis-2/maxwin/BulkDock/SCRATCH/511017/C75272-P40

>  <fragmenstein_runtime>  (1337) 
14.279789686203003

>  <fragmenstein_outcome>  (1337) 
too moved

>  <fragmenstein_mode>  (1337) 
expansion

>  <fragmenstein_error>  (1337) 


$$$$
C75272-P54
     RDKit          3D

 39 41  0  0  0  0  0  0  0  0999 V2000
   -6.5916  -15.5224   26.9905 O   0  0  0  0  0  0  0  0  0  0  0  0
   -5.3433  -16.0569   26.6745 C   0  0  0  0  0  0  0  0  0  0  0  0
   -3.8733  -14.4224   26.6427 C   0  0  0  0  0  0  0  0  0  0  0  0
   -3.1025  -12.5250   27.3799 C   0  0  0  0  0  0  0  0  0  0  0  0
   -3.5575  -10.4589   27.2236 C   0  0  0  0  0  0  0  0  0  0  0  0
   -2.7660   -8.6337   27.4481 C   0  0  0  0  0  0  0  0  0  0  0  0
   -1.8142   -7.9082   26.5676 C   0  0  0  0  0  0  0  0  0  0  0  0
   -1.5059   -6.5496   26.7733 N   0  0  0  0  0  0  0  0  0  0  0  0
   -2.2254   -6.0222   27.8677 C   0  0  0  0  0  0  0  0  0  0  0  0
   -2.1299   -4.7229   28.4020 C   0  0  0  0  0  0  0  0  0  0  0  0
   -2.9609   -4.3891   29.4508 C   0  0  0  0  0  0  0  0  0  0  0  0
   -3.9575   -5.2693   29.8084 C   0  0  0  0  0  0  0  0  0  0  0  0
   -4.0558   -6.5373   29.1968 C   0  0  0  0  0  0  0  0  0  0  0  0
   -3.0494   -7.1183   28.3501 C   0  0  0  0  0  0  0  0  0  0  0  0
   -5.5561  -17.8999   26.2757 O   0  0  0  0  0  0  0  0  0  0  0  0
   -6.6352  -19.3433   27.2016 C   0  0  0  0  0  0  0  0  0  0  0  0
   -8.0661  -20.5536   27.9231 C   0  0  0  0  0  0  0  0  0  0  0  0
   -9.5612  -20.1461   28.3891 C   0  0  0  0  0  0  0  0  0  0  0  0
  -10.6932  -20.7961   28.9012 N   0  0  0  0  0  0  0  0  0  0  0  0
  -10.5722  -22.0900   29.0321 C   0  0  0  0  0  0  0  0  0  0  0  0
   -9.5459  -22.7160   28.5171 N   0  0  0  0  0  0  0  0  0  0  0  0
   -8.5979  -21.8979   27.8600 C   0  0  0  0  0  0  0  0  0  0  0  0
   -4.2522  -14.1625   27.6936 H   0  0  0  0  0  0  0  0  0  0  0  0
   -2.9729  -14.8922   26.2329 H   0  0  0  0  0  0  0  0  0  0  0  0
   -2.0953  -12.5118   26.9119 H   0  0  0  0  0  0  0  0  0  0  0  0
   -3.0650  -12.7565   28.4414 H   0  0  0  0  0  0  0  0  0  0  0  0
   -3.8534  -10.1929   26.2004 H   0  0  0  0  0  0  0  0  0  0  0  0
   -4.5590  -10.3245   27.6777 H   0  0  0  0  0  0  0  0  0  0  0  0
   -1.3389   -8.1786   25.6460 H   0  0  0  0  0  0  0  0  0  0  0  0
   -0.8008   -6.0334   26.2474 H   0  0  0  0  0  0  0  0  0  0  0  0
   -1.3993   -4.0137   28.0193 H   0  0  0  0  0  0  0  0  0  0  0  0
   -2.8802   -3.4101   29.9147 H   0  0  0  0  0  0  0  0  0  0  0  0
   -4.7042   -4.9793   30.5433 H   0  0  0  0  0  0  0  0  0  0  0  0
   -4.9920   -7.0550   29.3957 H   0  0  0  0  0  0  0  0  0  0  0  0
   -7.2495  -18.5191   27.3539 H   0  0  0  0  0  0  0  0  0  0  0  0
   -7.4294  -19.3936   26.5338 H   0  0  0  0  0  0  0  0  0  0  0  0
   -9.8402  -19.1290   28.5967 H   0  0  0  0  0  0  0  0  0  0  0  0
  -11.3467  -22.6519   29.5318 H   0  0  0  0  0  0  0  0  0  0  0  0
   -8.6202  -22.4057   26.8899 H   0  0  0  0  0  0  0  0  0  0  0  0
  1  2  2  0
  2  3  1  0
  3  4  1  0
  4  5  1  0
  5  6  1  0
  6  7  2  0
  7  8  1  0
  8  9  1  0
  9 10  2  0
 10 11  1  0
 11 12  2  0
 12 13  1  0
 13 14  2  0
  2 15  1  0
 15 16  1  0
 16 17  1  0
 17 18  2  0
 18 19  1  0
 19 20  2  0
 20 21  1  0
 21 22  2  0
 14  6  1  0
 22 17  1  0
 14  9  1  0
  3 23  1  0
  3 24  1  0
  4 25  1  0
  4 26  1  0
  5 27  1  0
  5 28  1  0
  7 29  1  0
  8 30  1  0
 10 31  1  0
 11 32  1  0
 12 33  1  0
 13 34  1  0
 16 35  1  0
 16 36  1  0
 18 37  1  0
 20 38  1  0
 22 39  1  0
M  END
>  <Energy>  (1338) 
1074.1387464229404

>  <compound_id>  (1338) 
75272

>  <target_id>  (1338) 
1

>  <reference_id>  (1338) 
54

>  <inspiration_ids>  (1338) 
[40, 54]

>  <energy_score>  (1338) 
1053.7618992216599

>  <distance_score>  (1338) 
3.9023857128680026

>  <path>  (1338) 
/opt/xchem-fragalysis-2/maxwin/BulkDock/SCRATCH/511017/C75272-P54/C75272-P54.minimised.mol

>  <scratch_subdir>  (1338) 
/opt/xchem-fragalysis-2/maxwin/BulkDock/SCRATCH/511017/C75272-P54

>  <fragmenstein_runtime>  (1338) 
15.571768283843994

>  <fragmenstein_outcome>  (1338) 
too moved

>  <fragmenstein_mode>  (1338) 
expansion

>  <fragmenstein_error>  (1338) 


$$$$
C75273-P40
     RDKit          3D

 36 38  0  0  0  0  0  0  0  0999 V2000
   -2.8340   -7.7697   30.9932 C   0  0  0  0  0  0  0  0  0  0  0  0
   -3.7741   -7.6199   29.3093 C   0  0  0  0  0  0  0  0  0  0  0  0
   -2.6056   -7.2200   28.6043 C   0  0  0  0  0  0  0  0  0  0  0  0
   -3.0621   -7.3662   27.3754 C   0  0  0  0  0  0  0  0  0  0  0  0
   -4.3617   -8.1166   27.1833 C   0  0  0  0  0  0  0  0  0  0  0  0
   -5.8243   -8.9148   27.2582 C   0  0  0  0  0  0  0  0  0  0  0  0
   -6.4804  -10.5259   26.1328 C   0  0  0  0  0  0  0  0  0  0  0  0
   -6.9662  -12.5882   26.2115 C   0  0  0  0  0  0  0  0  0  0  0  0
   -7.5921  -14.4411   25.3128 C   0  0  0  0  0  0  0  0  0  0  0  0
   -6.8221  -14.7456   24.3922 O   0  0  0  0  0  0  0  0  0  0  0  0
   -8.8602  -15.5251   25.3384 O   0  0  0  0  0  0  0  0  0  0  0  0
   -9.7046  -16.5115   23.8528 C   0  0  0  0  0  0  0  0  0  0  0  0
   -9.1790  -17.4190   22.3637 C   0  0  0  0  0  0  0  0  0  0  0  0
   -8.0373  -18.2117   22.1912 C   0  0  0  0  0  0  0  0  0  0  0  0
   -7.9074  -19.1979   21.2767 N   0  0  0  0  0  0  0  0  0  0  0  0
   -8.9321  -19.3338   20.4354 C   0  0  0  0  0  0  0  0  0  0  0  0
   -9.9931  -18.5205   20.3587 N   0  0  0  0  0  0  0  0  0  0  0  0
  -10.0766  -17.5719   21.3135 C   0  0  0  0  0  0  0  0  0  0  0  0
   -7.2953   -9.2672   26.8948 C   0  0  0  0  0  0  0  0  0  0  0  0
   -6.6417   -9.3172   28.4844 N   0  0  0  0  0  0  0  0  0  0  0  0
   -5.5398   -8.2231   28.8511 C   0  0  0  0  0  0  0  0  0  0  0  0
   -2.3841   -6.8165   31.2808 H   0  0  0  0  0  0  0  0  0  0  0  0
   -3.4710   -8.3180   31.6876 H   0  0  0  0  0  0  0  0  0  0  0  0
   -1.8385   -8.2718   30.9783 H   0  0  0  0  0  0  0  0  0  0  0  0
   -1.6409   -7.0332   29.0264 H   0  0  0  0  0  0  0  0  0  0  0  0
   -2.5967   -7.4264   26.4507 H   0  0  0  0  0  0  0  0  0  0  0  0
   -5.0071   -7.4752   27.5170 H   0  0  0  0  0  0  0  0  0  0  0  0
   -6.5987  -12.9031   27.1535 H   0  0  0  0  0  0  0  0  0  0  0  0
   -6.2303  -12.4798   25.4120 H   0  0  0  0  0  0  0  0  0  0  0  0
  -10.4960  -16.0511   23.1906 H   0  0  0  0  0  0  0  0  0  0  0  0
  -10.3261  -17.1041   24.5114 H   0  0  0  0  0  0  0  0  0  0  0  0
   -7.1505  -18.1212   22.8123 H   0  0  0  0  0  0  0  0  0  0  0  0
   -8.8830  -20.1510   19.7248 H   0  0  0  0  0  0  0  0  0  0  0  0
  -10.9597  -16.9510   21.2054 H   0  0  0  0  0  0  0  0  0  0  0  0
   -8.2997   -9.3382   27.2765 H   0  0  0  0  0  0  0  0  0  0  0  0
   -7.1761   -9.8386   29.1587 H   0  0  0  0  0  0  0  0  0  0  0  0
  1  2  1  0
  2  3  2  0
  3  4  1  0
  4  5  2  0
  5  6  1  0
  6  7  1  0
  7  8  1  0
  8  9  1  0
  9 10  2  0
  9 11  1  0
 11 12  1  0
 12 13  1  0
 13 14  2  0
 14 15  1  0
 15 16  2  0
 16 17  1  0
 17 18  2  0
  7 19  2  0
 19 20  1  0
 20 21  1  0
 21  2  1  0
 21  6  2  0
 18 13  1  0
  1 22  1  0
  1 23  1  0
  1 24  1  0
  3 25  1  0
  4 26  1  0
  5 27  1  0
  8 28  1  0
  8 29  1  0
 12 30  1  0
 12 31  1  0
 14 32  1  0
 16 33  1  0
 18 34  1  0
 19 35  1  0
 20 36  1  0
M  END
>  <Energy>  (1339) 
1322.5316653506418

>  <compound_id>  (1339) 
75273

>  <target_id>  (1339) 
1

>  <reference_id>  (1339) 
40

>  <inspiration_ids>  (1339) 
[40, 54]

>  <energy_score>  (1339) 
1278.1948151320826

>  <distance_score>  (1339) 
7.933275433302907

>  <path>  (1339) 
/opt/xchem-fragalysis-2/maxwin/BulkDock/SCRATCH/511017/C75273-P40/C75273-P40.minimised.mol

>  <scratch_subdir>  (1339) 
/opt/xchem-fragalysis-2/maxwin/BulkDock/SCRATCH/511017/C75273-P40

>  <fragmenstein_runtime>  (1339) 
16.920376539230347

>  <fragmenstein_outcome>  (1339) 
too moved

>  <fragmenstein_mode>  (1339) 
expansion

>  <fragmenstein_error>  (1339) 


$$$$
C75273-P54
     RDKit          3D

 36 38  0  0  0  0  0  0  0  0999 V2000
   -2.9490   -6.4996   28.7769 C   0  0  0  0  0  0  0  0  0  0  0  0
   -4.2090   -7.2774   28.8738 C   0  0  0  0  0  0  0  0  0  0  0  0
   -5.2602   -6.5624   29.4782 C   0  0  0  0  0  0  0  0  0  0  0  0
   -6.5097   -7.1201   29.4845 C   0  0  0  0  0  0  0  0  0  0  0  0
   -6.6770   -8.4969   29.1100 C   0  0  0  0  0  0  0  0  0  0  0  0
   -5.7013   -9.6001   28.4984 C   0  0  0  0  0  0  0  0  0  0  0  0
   -5.6821  -11.3816   27.9247 C   0  0  0  0  0  0  0  0  0  0  0  0
   -5.8756  -13.4186   28.1555 C   0  0  0  0  0  0  0  0  0  0  0  0
   -6.3474  -15.2951   27.3851 C   0  0  0  0  0  0  0  0  0  0  0  0
   -5.4313  -16.0574   26.7358 O   0  0  0  0  0  0  0  0  0  0  0  0
   -8.0062  -16.1117   27.4190 O   0  0  0  0  0  0  0  0  0  0  0  0
   -8.8657  -17.8163   27.5828 C   0  0  0  0  0  0  0  0  0  0  0  0
   -9.9683  -19.0160   28.8320 C   0  0  0  0  0  0  0  0  0  0  0  0
  -10.5294  -20.2318   28.3002 C   0  0  0  0  0  0  0  0  0  0  0  0
  -11.2429  -21.2207   28.9215 N   0  0  0  0  0  0  0  0  0  0  0  0
  -11.5589  -20.9766   30.1803 C   0  0  0  0  0  0  0  0  0  0  0  0
  -11.2834  -19.8394   30.7972 N   0  0  0  0  0  0  0  0  0  0  0  0
  -10.5236  -18.9108   30.1145 C   0  0  0  0  0  0  0  0  0  0  0  0
   -4.3652  -10.8423   27.5188 C   0  0  0  0  0  0  0  0  0  0  0  0
   -3.9018   -9.5898   27.3174 N   0  0  0  0  0  0  0  0  0  0  0  0
   -4.5200   -8.8317   28.2563 C   0  0  0  0  0  0  0  0  0  0  0  0
   -2.3976   -7.0168   28.0048 H   0  0  0  0  0  0  0  0  0  0  0  0
   -2.4558   -6.4650   29.7483 H   0  0  0  0  0  0  0  0  0  0  0  0
   -3.1189   -5.4664   28.4542 H   0  0  0  0  0  0  0  0  0  0  0  0
   -5.0307   -5.6490   29.9867 H   0  0  0  0  0  0  0  0  0  0  0  0
   -7.3576   -6.5940   29.9106 H   0  0  0  0  0  0  0  0  0  0  0  0
   -7.6788   -8.7769   29.3942 H   0  0  0  0  0  0  0  0  0  0  0  0
   -5.8637  -13.4684   29.2395 H   0  0  0  0  0  0  0  0  0  0  0  0
   -4.8116  -13.7400   28.2198 H   0  0  0  0  0  0  0  0  0  0  0  0
   -9.0266  -18.9008   27.1077 H   0  0  0  0  0  0  0  0  0  0  0  0
   -7.7627  -18.0154   27.4798 H   0  0  0  0  0  0  0  0  0  0  0  0
  -10.5631  -20.4225   27.2434 H   0  0  0  0  0  0  0  0  0  0  0  0
  -12.1003  -21.7322   30.7343 H   0  0  0  0  0  0  0  0  0  0  0  0
  -10.3063  -18.1311   30.8275 H   0  0  0  0  0  0  0  0  0  0  0  0
   -3.4989  -11.4881   27.5051 H   0  0  0  0  0  0  0  0  0  0  0  0
   -2.9866   -9.3689   26.9516 H   0  0  0  0  0  0  0  0  0  0  0  0
  1  2  1  0
  2  3  2  0
  3  4  1  0
  4  5  2  0
  5  6  1  0
  6  7  1  0
  7  8  1  0
  8  9  1  0
  9 10  2  0
  9 11  1  0
 11 12  1  0
 12 13  1  0
 13 14  2  0
 14 15  1  0
 15 16  2  0
 16 17  1  0
 17 18  2  0
  7 19  2  0
 19 20  1  0
 20 21  1  0
 21  2  1  0
 21  6  2  0
 18 13  1  0
  1 22  1  0
  1 23  1  0
  1 24  1  0
  3 25  1  0
  4 26  1  0
  5 27  1  0
  8 28  1  0
  8 29  1  0
 12 30  1  0
 12 31  1  0
 14 32  1  0
 16 33  1  0
 18 34  1  0
 19 35  1  0
 20 36  1  0
M  END
>  <Energy>  (1340) 
795.47802808354515

>  <compound_id>  (1340) 
75273

>  <target_id>  (1340) 
1

>  <reference_id>  (1340) 
54

>  <inspiration_ids>  (1340) 
[40, 54]

>  <energy_score>  (1340) 
751.1411778649863

>  <distance_score>  (1340) 
5.789644954052832

>  <path>  (1340) 
/opt/xchem-fragalysis-2/maxwin/BulkDock/SCRATCH/511017/C75273-P54/C75273-P54.minimised.mol

>  <scratch_subdir>  (1340) 
/opt/xchem-fragalysis-2/maxwin/BulkDock/SCRATCH/511017/C75273-P54

>  <fragmenstein_runtime>  (1340) 
11.533548831939697

>  <fragmenstein_outcome>  (1340) 
too moved

>  <fragmenstein_mode>  (1340) 
expansion

>  <fragmenstein_error>  (1340) 


$$$$
C75274-P40
     RDKit          3D

 33 35  0  0  0  0  0  0  0  0999 V2000
   -2.0558  -15.4339   28.8084 O   0  0  0  0  0  0  0  0  0  0  0  0
   -3.1381  -14.9092   29.1365 C   0  0  0  0  0  0  0  0  0  0  0  0
   -2.8790  -12.7291   29.2998 C   0  0  0  0  0  0  0  0  0  0  0  0
   -1.6083  -11.2505   30.0087 C   0  0  0  0  0  0  0  0  0  0  0  0
   -1.0186  -10.2833   29.1275 C   0  0  0  0  0  0  0  0  0  0  0  0
   -1.3052   -9.7448   30.3130 N   0  0  0  0  0  0  0  0  0  0  0  0
   -0.3747   -8.7898   30.4785 C   0  0  0  0  0  0  0  0  0  0  0  0
   -0.0616   -7.4978   30.9407 C   0  0  0  0  0  0  0  0  0  0  0  0
   -0.3437   -7.0251   32.2022 C   0  0  0  0  0  0  0  0  0  0  0  0
   -1.0951   -7.8108   33.0148 C   0  0  0  0  0  0  0  0  0  0  0  0
   -1.4721   -7.2465   34.5889 Cl  0  0  0  0  0  0  0  0  0  0  0  0
   -1.5752   -9.0434   32.5338 C   0  0  0  0  0  0  0  0  0  0  0  0
   -0.9865   -9.9042   31.3476 C   0  0  0  0  0  0  0  0  0  0  0  0
   -4.7692  -16.1723   29.2223 O   0  0  0  0  0  0  0  0  0  0  0  0
   -6.2808  -17.6342   28.7183 C   0  0  0  0  0  0  0  0  0  0  0  0
   -8.1584  -18.6795   28.2282 C   0  0  0  0  0  0  0  0  0  0  0  0
   -7.8579  -20.6171   27.7821 C   0  0  0  0  0  0  0  0  0  0  0  0
   -8.1898  -22.3084   27.8486 N   0  0  0  0  0  0  0  0  0  0  0  0
   -9.5101  -22.6453   28.1025 C   0  0  0  0  0  0  0  0  0  0  0  0
  -10.2145  -21.5182   28.1577 N   0  0  0  0  0  0  0  0  0  0  0  0
   -9.3090  -19.9453   28.2248 C   0  0  0  0  0  0  0  0  0  0  0  0
   -2.6645  -12.2875   28.3031 H   0  0  0  0  0  0  0  0  0  0  0  0
   -3.8407  -12.1965   29.2816 H   0  0  0  0  0  0  0  0  0  0  0  0
   -0.0903   -9.9420   28.7642 H   0  0  0  0  0  0  0  0  0  0  0  0
   -2.4403   -9.8565   30.8579 H   0  0  0  0  0  0  0  0  0  0  0  0
    0.5654   -6.8723   30.3036 H   0  0  0  0  0  0  0  0  0  0  0  0
    0.0119   -6.0500   32.5211 H   0  0  0  0  0  0  0  0  0  0  0  0
   -2.5117   -9.3313   32.9894 H   0  0  0  0  0  0  0  0  0  0  0  0
   -5.6339  -18.1589   27.9650 H   0  0  0  0  0  0  0  0  0  0  0  0
   -6.2316  -18.0461   29.7232 H   0  0  0  0  0  0  0  0  0  0  0  0
   -6.8325  -20.8922   27.4584 H   0  0  0  0  0  0  0  0  0  0  0  0
   -9.9191  -23.6370   28.0652 H   0  0  0  0  0  0  0  0  0  0  0  0
  -10.2412  -20.1975   29.1930 H   0  0  0  0  0  0  0  0  0  0  0  0
  1  2  2  0
  2  3  1  0
  3  4  1  0
  4  5  2  0
  5  6  1  0
  6  7  1  0
  7  8  2  0
  8  9  1  0
  9 10  2  0
 10 11  1  0
 10 12  1  0
 12 13  2  0
  2 14  1  0
 14 15  1  0
 15 16  1  0
 16 17  2  0
 17 18  1  0
 18 19  2  0
 19 20  1  0
 20 21  2  0
 13  4  1  0
 21 16  1  0
 13  7  1  0
  3 22  1  0
  3 23  1  0
  5 24  1  0
  6 25  1  0
  8 26  1  0
  9 27  1  0
 12 28  1  0
 15 29  1  0
 15 30  1  0
 17 31  1  0
 19 32  1  0
 21 33  1  0
M  END
>  <Energy>  (1341) 
1813.6557268964098

>  <compound_id>  (1341) 
75274

>  <target_id>  (1341) 
1

>  <reference_id>  (1341) 
40

>  <inspiration_ids>  (1341) 
[40, 54]

>  <energy_score>  (1341) 
1780.643476881621

>  <distance_score>  (1341) 
4.644127087684904

>  <path>  (1341) 
/opt/xchem-fragalysis-2/maxwin/BulkDock/SCRATCH/511017/C75274-P40/C75274-P40.minimised.mol

>  <scratch_subdir>  (1341) 
/opt/xchem-fragalysis-2/maxwin/BulkDock/SCRATCH/511017/C75274-P40

>  <fragmenstein_runtime>  (1341) 
11.77882981300354

>  <fragmenstein_outcome>  (1341) 
too moved

>  <fragmenstein_mode>  (1341) 
expansion

>  <fragmenstein_error>  (1341) 


$$$$
C75274-P54
     RDKit          3D

 33 35  0  0  0  0  0  0  0  0999 V2000
   -9.0695  -15.8865   25.9121 O   0  0  0  0  0  0  0  0  0  0  0  0
   -8.3601  -16.2827   26.8784 C   0  0  0  0  0  0  0  0  0  0  0  0
   -6.7570  -15.3344   27.0859 C   0  0  0  0  0  0  0  0  0  0  0  0
   -6.6598  -13.4118   27.1021 C   0  0  0  0  0  0  0  0  0  0  0  0
   -7.7322  -12.6492   26.5245 C   0  0  0  0  0  0  0  0  0  0  0  0
   -7.0753  -11.5714   26.8763 N   0  0  0  0  0  0  0  0  0  0  0  0
   -6.8672  -11.3936   28.5462 C   0  0  0  0  0  0  0  0  0  0  0  0
   -6.6520   -9.9018   29.2531 C   0  0  0  0  0  0  0  0  0  0  0  0
   -5.7529   -9.0280   28.6613 C   0  0  0  0  0  0  0  0  0  0  0  0
   -4.8222   -9.6072   27.8425 C   0  0  0  0  0  0  0  0  0  0  0  0
   -3.2434   -8.9794   27.3667 Cl  0  0  0  0  0  0  0  0  0  0  0  0
   -4.9136  -10.9576   27.7343 C   0  0  0  0  0  0  0  0  0  0  0  0
   -5.8868  -12.1959   28.1376 C   0  0  0  0  0  0  0  0  0  0  0  0
   -8.8406  -17.6177   27.7331 O   0  0  0  0  0  0  0  0  0  0  0  0
   -9.9277  -18.9948   28.6959 C   0  0  0  0  0  0  0  0  0  0  0  0
  -10.3968  -20.5090   28.5894 C   0  0  0  0  0  0  0  0  0  0  0  0
   -9.7859  -21.6798   28.2073 C   0  0  0  0  0  0  0  0  0  0  0  0
  -10.2822  -22.9410   28.3160 N   0  0  0  0  0  0  0  0  0  0  0  0
  -11.4603  -23.0487   28.9228 C   0  0  0  0  0  0  0  0  0  0  0  0
  -12.1333  -22.0325   29.4538 N   0  0  0  0  0  0  0  0  0  0  0  0
  -11.5571  -20.8182   29.3007 C   0  0  0  0  0  0  0  0  0  0  0  0
   -5.8292  -15.9415   26.6830 H   0  0  0  0  0  0  0  0  0  0  0  0
   -6.1062  -15.3593   28.0405 H   0  0  0  0  0  0  0  0  0  0  0  0
   -8.5338  -12.8114   25.8131 H   0  0  0  0  0  0  0  0  0  0  0  0
   -6.9217  -10.7891   26.2639 H   0  0  0  0  0  0  0  0  0  0  0  0
   -7.4484   -9.3613   29.7615 H   0  0  0  0  0  0  0  0  0  0  0  0
   -5.7949   -8.0271   29.0928 H   0  0  0  0  0  0  0  0  0  0  0  0
   -3.8960  -11.3152   27.5515 H   0  0  0  0  0  0  0  0  0  0  0  0
   -9.7820  -18.8066   29.7530 H   0  0  0  0  0  0  0  0  0  0  0  0
  -10.9487  -18.6145   28.8717 H   0  0  0  0  0  0  0  0  0  0  0  0
   -8.7687  -21.7004   27.8570 H   0  0  0  0  0  0  0  0  0  0  0  0
  -11.8918  -24.0377   29.0093 H   0  0  0  0  0  0  0  0  0  0  0  0
  -12.0715  -20.0465   29.8688 H   0  0  0  0  0  0  0  0  0  0  0  0
  1  2  2  0
  2  3  1  0
  3  4  1  0
  4  5  2  0
  5  6  1  0
  6  7  1  0
  7  8  2  0
  8  9  1  0
  9 10  2  0
 10 11  1  0
 10 12  1  0
 12 13  2  0
  2 14  1  0
 14 15  1  0
 15 16  1  0
 16 17  2  0
 17 18  1  0
 18 19  2  0
 19 20  1  0
 20 21  2  0
 13  4  1  0
 21 16  1  0
 13  7  1  0
  3 22  1  0
  3 23  1  0
  5 24  1  0
  6 25  1  0
  8 26  1  0
  9 27  1  0
 12 28  1  0
 15 29  1  0
 15 30  1  0
 17 31  1  0
 19 32  1  0
 21 33  1  0
M  END
>  <Energy>  (1342) 
570.17632125036471

>  <compound_id>  (1342) 
75274

>  <target_id>  (1342) 
1

>  <reference_id>  (1342) 
54

>  <inspiration_ids>  (1342) 
[40, 54]

>  <energy_score>  (1342) 
537.1640712355922

>  <distance_score>  (1342) 
7.1197589766758

>  <path>  (1342) 
/opt/xchem-fragalysis-2/maxwin/BulkDock/SCRATCH/511017/C75274-P54/C75274-P54.minimised.mol

>  <scratch_subdir>  (1342) 
/opt/xchem-fragalysis-2/maxwin/BulkDock/SCRATCH/511017/C75274-P54

>  <fragmenstein_runtime>  (1342) 
11.808022499084473

>  <fragmenstein_outcome>  (1342) 
too moved

>  <fragmenstein_mode>  (1342) 
expansion

>  <fragmenstein_error>  (1342) 


$$$$
C75275-P40
     RDKit          3D

 33 35  0  0  0  0  0  0  0  0999 V2000
   -6.2132  -14.6284   30.6948 O   0  0  0  0  0  0  0  0  0  0  0  0
   -6.2475  -14.3146   29.4717 C   0  0  0  0  0  0  0  0  0  0  0  0
   -5.1310  -12.4698   29.1825 C   0  0  0  0  0  0  0  0  0  0  0  0
   -3.1745  -11.8704   29.3111 C   0  0  0  0  0  0  0  0  0  0  0  0
   -2.6587  -11.8115   28.0747 C   0  0  0  0  0  0  0  0  0  0  0  0
   -1.5948  -10.9116   27.9834 N   0  0  0  0  0  0  0  0  0  0  0  0
   -0.9648  -10.1439   29.0398 C   0  0  0  0  0  0  0  0  0  0  0  0
   -0.2029   -8.8501   29.1065 C   0  0  0  0  0  0  0  0  0  0  0  0
    0.0305   -8.0821   30.2228 C   0  0  0  0  0  0  0  0  0  0  0  0
   -0.5005   -8.5473   31.3666 C   0  0  0  0  0  0  0  0  0  0  0  0
   -1.4320   -9.6299   31.2581 C   0  0  0  0  0  0  0  0  0  0  0  0
   -2.7379   -8.7349   31.9724 Cl  0  0  0  0  0  0  0  0  0  0  0  0
   -1.7469  -10.7304   30.0284 C   0  0  0  0  0  0  0  0  0  0  0  0
   -7.1551  -15.7455   28.4535 O   0  0  0  0  0  0  0  0  0  0  0  0
   -8.2907  -17.4954   28.2437 C   0  0  0  0  0  0  0  0  0  0  0  0
   -9.0103  -19.4986   28.3370 C   0  0  0  0  0  0  0  0  0  0  0  0
  -10.4214  -20.3898   29.3264 C   0  0  0  0  0  0  0  0  0  0  0  0
  -11.3450  -21.4624   29.6589 N   0  0  0  0  0  0  0  0  0  0  0  0
  -11.3079  -22.3660   28.7683 C   0  0  0  0  0  0  0  0  0  0  0  0
  -10.3718  -22.2398   27.9151 N   0  0  0  0  0  0  0  0  0  0  0  0
   -9.6301  -20.7907   27.6980 C   0  0  0  0  0  0  0  0  0  0  0  0
   -5.5089  -11.5299   29.5652 H   0  0  0  0  0  0  0  0  0  0  0  0
   -5.3092  -11.9929   28.1801 H   0  0  0  0  0  0  0  0  0  0  0  0
   -3.0171  -12.1477   27.1016 H   0  0  0  0  0  0  0  0  0  0  0  0
   -1.5966  -10.5864   27.0551 H   0  0  0  0  0  0  0  0  0  0  0  0
    0.0890   -8.2671   28.2425 H   0  0  0  0  0  0  0  0  0  0  0  0
    0.5538   -7.1341   30.1814 H   0  0  0  0  0  0  0  0  0  0  0  0
   -0.4036   -7.9568   32.2788 H   0  0  0  0  0  0  0  0  0  0  0  0
   -8.7183  -17.1412   27.3083 H   0  0  0  0  0  0  0  0  0  0  0  0
   -7.3035  -17.8322   28.3806 H   0  0  0  0  0  0  0  0  0  0  0  0
  -11.0634  -19.7024   29.8299 H   0  0  0  0  0  0  0  0  0  0  0  0
  -11.9939  -23.1633   28.6374 H   0  0  0  0  0  0  0  0  0  0  0  0
  -10.2398  -20.7295   26.7901 H   0  0  0  0  0  0  0  0  0  0  0  0
  1  2  2  0
  2  3  1  0
  3  4  1  0
  4  5  2  0
  5  6  1  0
  6  7  1  0
  7  8  2  0
  8  9  1  0
  9 10  2  0
 10 11  1  0
 11 12  1  0
 11 13  2  0
  2 14  1  0
 14 15  1  0
 15 16  1  0
 16 17  2  0
 17 18  1  0
 18 19  2  0
 19 20  1  0
 20 21  2  0
 13  4  1  0
 21 16  1  0
 13  7  1  0
  3 22  1  0
  3 23  1  0
  5 24  1  0
  6 25  1  0
  8 26  1  0
  9 27  1  0
 10 28  1  0
 15 29  1  0
 15 30  1  0
 17 31  1  0
 19 32  1  0
 21 33  1  0
M  END
>  <Energy>  (1343) 
1294.8592724739874

>  <compound_id>  (1343) 
75275

>  <target_id>  (1343) 
1

>  <reference_id>  (1343) 
40

>  <inspiration_ids>  (1343) 
[40, 54]

>  <energy_score>  (1343) 
1238.8064457018368

>  <distance_score>  (1343) 
4.725390369156913

>  <path>  (1343) 
/opt/xchem-fragalysis-2/maxwin/BulkDock/SCRATCH/511017/C75275-P40/C75275-P40.minimised.mol

>  <scratch_subdir>  (1343) 
/opt/xchem-fragalysis-2/maxwin/BulkDock/SCRATCH/511017/C75275-P40

>  <fragmenstein_runtime>  (1343) 
11.977439641952515

>  <fragmenstein_outcome>  (1343) 
too moved

>  <fragmenstein_mode>  (1343) 
expansion

>  <fragmenstein_error>  (1343) 


$$$$
C75275-P54
     RDKit          3D

 33 35  0  0  0  0  0  0  0  0999 V2000
   -3.6926  -14.5990   26.5148 O   0  0  0  0  0  0  0  0  0  0  0  0
   -4.4947  -14.1039   27.4243 C   0  0  0  0  0  0  0  0  0  0  0  0
   -3.8033  -12.2252   28.0137 C   0  0  0  0  0  0  0  0  0  0  0  0
   -3.8343  -10.2399   27.4517 C   0  0  0  0  0  0  0  0  0  0  0  0
   -3.8778   -9.8378   26.1913 C   0  0  0  0  0  0  0  0  0  0  0  0
   -2.8712   -8.9139   25.9666 N   0  0  0  0  0  0  0  0  0  0  0  0
   -2.2432   -8.1350   26.9006 C   0  0  0  0  0  0  0  0  0  0  0  0
   -1.4547   -6.9308   26.5685 C   0  0  0  0  0  0  0  0  0  0  0  0
   -1.6983   -5.7097   27.2850 C   0  0  0  0  0  0  0  0  0  0  0  0
   -2.5885   -5.7851   28.3760 C   0  0  0  0  0  0  0  0  0  0  0  0
   -3.3580   -7.0251   28.6436 C   0  0  0  0  0  0  0  0  0  0  0  0
   -4.8830   -6.3833   29.3890 Cl  0  0  0  0  0  0  0  0  0  0  0  0
   -3.1627   -8.5003   27.8584 C   0  0  0  0  0  0  0  0  0  0  0  0
   -6.0055  -15.1157   27.7466 O   0  0  0  0  0  0  0  0  0  0  0  0
   -7.7713  -16.0254   27.2289 C   0  0  0  0  0  0  0  0  0  0  0  0
   -8.9512  -17.6303   27.7467 C   0  0  0  0  0  0  0  0  0  0  0  0
   -9.3834  -19.3250   27.5235 C   0  0  0  0  0  0  0  0  0  0  0  0
   -9.9886  -20.7264   28.0397 N   0  0  0  0  0  0  0  0  0  0  0  0
  -10.7890  -20.7032   29.0425 C   0  0  0  0  0  0  0  0  0  0  0  0
  -10.8643  -19.5685   29.6337 N   0  0  0  0  0  0  0  0  0  0  0  0
   -9.9841  -18.4382   29.0560 C   0  0  0  0  0  0  0  0  0  0  0  0
   -4.9053  -11.7693   28.0334 H   0  0  0  0  0  0  0  0  0  0  0  0
   -2.8401  -12.2735   27.4750 H   0  0  0  0  0  0  0  0  0  0  0  0
   -4.3569  -10.1985   25.2949 H   0  0  0  0  0  0  0  0  0  0  0  0
   -2.6833   -8.6580   25.0312 H   0  0  0  0  0  0  0  0  0  0  0  0
   -0.8812   -6.9230   25.6438 H   0  0  0  0  0  0  0  0  0  0  0  0
   -1.1896   -4.7877   27.0175 H   0  0  0  0  0  0  0  0  0  0  0  0
   -2.8070   -4.8669   28.9215 H   0  0  0  0  0  0  0  0  0  0  0  0
   -8.1438  -15.0207   27.0181 H   0  0  0  0  0  0  0  0  0  0  0  0
   -8.1610  -15.9020   26.2331 H   0  0  0  0  0  0  0  0  0  0  0  0
  -10.0392  -19.4739   26.6329 H   0  0  0  0  0  0  0  0  0  0  0  0
  -11.3157  -21.5737   29.3845 H   0  0  0  0  0  0  0  0  0  0  0  0
  -10.1061  -18.0663   30.0590 H   0  0  0  0  0  0  0  0  0  0  0  0
  1  2  2  0
  2  3  1  0
  3  4  1  0
  4  5  2  0
  5  6  1  0
  6  7  1  0
  7  8  2  0
  8  9  1  0
  9 10  2  0
 10 11  1  0
 11 12  1  0
 11 13  2  0
  2 14  1  0
 14 15  1  0
 15 16  1  0
 16 17  2  0
 17 18  1  0
 18 19  2  0
 19 20  1  0
 20 21  2  0
 13  4  1  0
 21 16  1  0
 13  7  1  0
  3 22  1  0
  3 23  1  0
  5 24  1  0
  6 25  1  0
  8 26  1  0
  9 27  1  0
 10 28  1  0
 15 29  1  0
 15 30  1  0
 17 31  1  0
 19 32  1  0
 21 33  1  0
M  END
>  <Energy>  (1344) 
1190.9227980342521

>  <compound_id>  (1344) 
75275

>  <target_id>  (1344) 
1

>  <reference_id>  (1344) 
54

>  <inspiration_ids>  (1344) 
[40, 54]

>  <energy_score>  (1344) 
1134.8699712621099

>  <distance_score>  (1344) 
5.2206282243702695

>  <path>  (1344) 
/opt/xchem-fragalysis-2/maxwin/BulkDock/SCRATCH/511017/C75275-P54/C75275-P54.minimised.mol

>  <scratch_subdir>  (1344) 
/opt/xchem-fragalysis-2/maxwin/BulkDock/SCRATCH/511017/C75275-P54

>  <fragmenstein_runtime>  (1344) 
10.925590991973877

>  <fragmenstein_outcome>  (1344) 
too moved

>  <fragmenstein_mode>  (1344) 
expansion

>  <fragmenstein_error>  (1344) 


$$$$
C75276-P40
     RDKit          3D

 33 35  0  0  0  0  0  0  0  0999 V2000
   -7.5832  -13.7642   27.8833 O   0  0  0  0  0  0  0  0  0  0  0  0
   -6.8990  -14.5131   28.6044 C   0  0  0  0  0  0  0  0  0  0  0  0
   -5.4591  -13.4729   29.7395 C   0  0  0  0  0  0  0  0  0  0  0  0
   -3.8349  -12.0984   29.3119 C   0  0  0  0  0  0  0  0  0  0  0  0
   -2.4638  -12.2350   29.1071 C   0  0  0  0  0  0  0  0  0  0  0  0
   -1.2881  -11.5614   30.3644 N   0  0  0  0  0  0  0  0  0  0  0  0
   -1.6372  -10.1894   30.8366 C   0  0  0  0  0  0  0  0  0  0  0  0
   -0.9704   -9.0121   31.3383 C   0  0  0  0  0  0  0  0  0  0  0  0
   -0.3724   -8.1804   30.4438 C   0  0  0  0  0  0  0  0  0  0  0  0
    0.1471   -6.6098   30.8422 Cl  0  0  0  0  0  0  0  0  0  0  0  0
   -0.2069   -8.7341   29.2226 C   0  0  0  0  0  0  0  0  0  0  0  0
   -0.9554   -9.9699   28.9281 C   0  0  0  0  0  0  0  0  0  0  0  0
   -2.2286  -10.9337   29.7046 C   0  0  0  0  0  0  0  0  0  0  0  0
   -7.4307  -16.3047   28.3416 O   0  0  0  0  0  0  0  0  0  0  0  0
   -8.6641  -17.8850   28.1197 C   0  0  0  0  0  0  0  0  0  0  0  0
   -9.2896  -19.8461   28.2981 C   0  0  0  0  0  0  0  0  0  0  0  0
   -9.9837  -21.0702   27.7416 C   0  0  0  0  0  0  0  0  0  0  0  0
  -10.3028  -22.4634   28.0515 N   0  0  0  0  0  0  0  0  0  0  0  0
  -11.3990  -22.5177   28.6872 C   0  0  0  0  0  0  0  0  0  0  0  0
  -11.5579  -21.5947   29.5646 N   0  0  0  0  0  0  0  0  0  0  0  0
  -10.6109  -20.5355   29.3959 C   0  0  0  0  0  0  0  0  0  0  0  0
   -5.0519  -14.3250   30.3778 H   0  0  0  0  0  0  0  0  0  0  0  0
   -6.1142  -13.2265   30.6108 H   0  0  0  0  0  0  0  0  0  0  0  0
   -2.3106  -11.8348   28.0643 H   0  0  0  0  0  0  0  0  0  0  0  0
   -0.3469  -11.9178   30.5333 H   0  0  0  0  0  0  0  0  0  0  0  0
   -1.1449   -8.7099   32.3685 H   0  0  0  0  0  0  0  0  0  0  0  0
    0.3745   -8.1915   28.4910 H   0  0  0  0  0  0  0  0  0  0  0  0
   -0.9498  -10.4149   27.9855 H   0  0  0  0  0  0  0  0  0  0  0  0
   -7.8039  -18.2293   28.5168 H   0  0  0  0  0  0  0  0  0  0  0  0
   -9.0016  -17.5271   27.1659 H   0  0  0  0  0  0  0  0  0  0  0  0
  -10.6995  -21.0190   26.8829 H   0  0  0  0  0  0  0  0  0  0  0  0
  -12.0653  -23.3174   28.4762 H   0  0  0  0  0  0  0  0  0  0  0  0
  -10.9759  -19.9986   30.2278 H   0  0  0  0  0  0  0  0  0  0  0  0
  1  2  2  0
  2  3  1  0
  3  4  1  0
  4  5  2  0
  5  6  1  0
  6  7  1  0
  7  8  2  0
  8  9  1  0
  9 10  1  0
  9 11  2  0
 11 12  1  0
 12 13  2  0
  2 14  1  0
 14 15  1  0
 15 16  1  0
 16 17  2  0
 17 18  1  0
 18 19  2  0
 19 20  1  0
 20 21  2  0
 13  4  1  0
 21 16  1  0
 13  7  1  0
  3 22  1  0
  3 23  1  0
  5 24  1  0
  6 25  1  0
  8 26  1  0
 11 27  1  0
 12 28  1  0
 15 29  1  0
 15 30  1  0
 17 31  1  0
 19 32  1  0
 21 33  1  0
M  END
>  <Energy>  (1345) 
1546.656512076733

>  <compound_id>  (1345) 
75276

>  <target_id>  (1345) 
1

>  <reference_id>  (1345) 
40

>  <inspiration_ids>  (1345) 
[40, 54]

>  <energy_score>  (1345) 
1508.9260045001188

>  <distance_score>  (1345) 
5.033638510580798

>  <path>  (1345) 
/opt/xchem-fragalysis-2/maxwin/BulkDock/SCRATCH/511017/C75276-P40/C75276-P40.minimised.mol

>  <scratch_subdir>  (1345) 
/opt/xchem-fragalysis-2/maxwin/BulkDock/SCRATCH/511017/C75276-P40

>  <fragmenstein_runtime>  (1345) 
13.686721086502075

>  <fragmenstein_outcome>  (1345) 
too moved

>  <fragmenstein_mode>  (1345) 
expansion

>  <fragmenstein_error>  (1345) 


$$$$
C75276-P54
     RDKit          3D

 33 35  0  0  0  0  0  0  0  0999 V2000
   -8.8207  -14.1481   25.5874 O   0  0  0  0  0  0  0  0  0  0  0  0
   -8.0308  -14.2976   26.5707 C   0  0  0  0  0  0  0  0  0  0  0  0
   -6.9148  -12.5397   26.8684 C   0  0  0  0  0  0  0  0  0  0  0  0
   -5.8325  -10.9955   27.6946 C   0  0  0  0  0  0  0  0  0  0  0  0
   -4.7239  -10.2376   26.9687 C   0  0  0  0  0  0  0  0  0  0  0  0
   -3.7450   -9.4868   27.4856 N   0  0  0  0  0  0  0  0  0  0  0  0
   -4.4208   -8.6743   28.3242 C   0  0  0  0  0  0  0  0  0  0  0  0
   -4.0260   -7.1943   28.8423 C   0  0  0  0  0  0  0  0  0  0  0  0
   -5.0145   -6.4184   29.4713 C   0  0  0  0  0  0  0  0  0  0  0  0
   -4.5430   -4.9565   30.1997 Cl  0  0  0  0  0  0  0  0  0  0  0  0
   -6.3016   -6.9519   29.6301 C   0  0  0  0  0  0  0  0  0  0  0  0
   -6.6499   -8.3039   29.1953 C   0  0  0  0  0  0  0  0  0  0  0  0
   -5.7173   -9.3451   28.5099 C   0  0  0  0  0  0  0  0  0  0  0  0
   -8.1656  -16.0079   27.2221 O   0  0  0  0  0  0  0  0  0  0  0  0
   -8.9150  -17.7979   27.5419 C   0  0  0  0  0  0  0  0  0  0  0  0
   -9.9112  -19.2062   28.6736 C   0  0  0  0  0  0  0  0  0  0  0  0
   -9.7531  -20.6244   28.4784 C   0  0  0  0  0  0  0  0  0  0  0  0
  -10.4069  -21.7116   29.0282 N   0  0  0  0  0  0  0  0  0  0  0  0
  -11.3935  -21.4167   29.8427 C   0  0  0  0  0  0  0  0  0  0  0  0
  -11.8567  -20.1910   29.9494 N   0  0  0  0  0  0  0  0  0  0  0  0
  -11.1880  -19.2278   29.2301 C   0  0  0  0  0  0  0  0  0  0  0  0
   -6.2932  -13.1044   27.5860 H   0  0  0  0  0  0  0  0  0  0  0  0
   -7.8270  -11.9716   26.9356 H   0  0  0  0  0  0  0  0  0  0  0  0
   -4.5231  -10.1658   25.8985 H   0  0  0  0  0  0  0  0  0  0  0  0
   -2.8822   -9.2336   27.0214 H   0  0  0  0  0  0  0  0  0  0  0  0
   -3.0118   -6.8502   28.6732 H   0  0  0  0  0  0  0  0  0  0  0  0
   -7.0670   -6.3756   30.1462 H   0  0  0  0  0  0  0  0  0  0  0  0
   -7.6603   -8.5815   29.4700 H   0  0  0  0  0  0  0  0  0  0  0  0
   -9.0999  -18.8746   27.0369 H   0  0  0  0  0  0  0  0  0  0  0  0
   -7.8344  -17.8958   27.5289 H   0  0  0  0  0  0  0  0  0  0  0  0
   -8.8713  -21.0603   28.0226 H   0  0  0  0  0  0  0  0  0  0  0  0
  -11.8714  -22.2069   30.4044 H   0  0  0  0  0  0  0  0  0  0  0  0
  -11.9412  -18.5301   28.8984 H   0  0  0  0  0  0  0  0  0  0  0  0
  1  2  2  0
  2  3  1  0
  3  4  1  0
  4  5  2  0
  5  6  1  0
  6  7  1  0
  7  8  2  0
  8  9  1  0
  9 10  1  0
  9 11  2  0
 11 12  1  0
 12 13  2  0
  2 14  1  0
 14 15  1  0
 15 16  1  0
 16 17  2  0
 17 18  1  0
 18 19  2  0
 19 20  1  0
 20 21  2  0
 13  4  1  0
 21 16  1  0
 13  7  1  0
  3 22  1  0
  3 23  1  0
  5 24  1  0
  6 25  1  0
  8 26  1  0
 11 27  1  0
 12 28  1  0
 15 29  1  0
 15 30  1  0
 17 31  1  0
 19 32  1  0
 21 33  1  0
M  END
>  <Energy>  (1346) 
879.15051924741238

>  <compound_id>  (1346) 
75276

>  <target_id>  (1346) 
1

>  <reference_id>  (1346) 
54

>  <inspiration_ids>  (1346) 
[40, 54]

>  <energy_score>  (1346) 
841.4200116708

>  <distance_score>  (1346) 
5.791954222529594

>  <path>  (1346) 
/opt/xchem-fragalysis-2/maxwin/BulkDock/SCRATCH/511017/C75276-P54/C75276-P54.minimised.mol

>  <scratch_subdir>  (1346) 
/opt/xchem-fragalysis-2/maxwin/BulkDock/SCRATCH/511017/C75276-P54

>  <fragmenstein_runtime>  (1346) 
11.912962198257446

>  <fragmenstein_outcome>  (1346) 
too moved

>  <fragmenstein_mode>  (1346) 
expansion

>  <fragmenstein_error>  (1346) 


$$$$
C75277-P40
     RDKit          3D

 36 38  0  0  0  0  0  0  0  0999 V2000
   -2.4735   -8.7715   32.4900 C   0  0  0  0  0  0  0  0  0  0  0  0
   -1.2992   -8.0671   32.0335 C   0  0  0  0  0  0  0  0  0  0  0  0
   -0.9251   -6.9440   32.8250 C   0  0  0  0  0  0  0  0  0  0  0  0
    0.0109   -6.0421   32.3924 C   0  0  0  0  0  0  0  0  0  0  0  0
    0.5743   -6.2560   31.1605 C   0  0  0  0  0  0  0  0  0  0  0  0
    0.2202   -7.4239   30.4546 C   0  0  0  0  0  0  0  0  0  0  0  0
    0.6628   -7.7736   29.2381 N   0  0  0  0  0  0  0  0  0  0  0  0
   -0.2938   -8.6120   28.7652 C   0  0  0  0  0  0  0  0  0  0  0  0
   -0.8602   -9.5939   29.5905 C   0  0  0  0  0  0  0  0  0  0  0  0
   -2.0952  -11.0583   29.0907 C   0  0  0  0  0  0  0  0  0  0  0  0
   -3.1077  -11.8691   27.6408 C   0  0  0  0  0  0  0  0  0  0  0  0
   -2.6332  -12.2786   26.5802 O   0  0  0  0  0  0  0  0  0  0  0  0
   -4.6832  -11.9968   27.6128 O   0  0  0  0  0  0  0  0  0  0  0  0
   -6.2289  -12.5612   26.7125 C   0  0  0  0  0  0  0  0  0  0  0  0
   -7.3324  -13.7065   26.7142 C   0  0  0  0  0  0  0  0  0  0  0  0
   -7.6529  -14.6215   25.6645 C   0  0  0  0  0  0  0  0  0  0  0  0
   -8.6153  -15.5380   25.5838 N   0  0  0  0  0  0  0  0  0  0  0  0
   -8.9694  -15.9907   26.6978 C   0  0  0  0  0  0  0  0  0  0  0  0
   -8.3079  -15.5498   27.7201 N   0  0  0  0  0  0  0  0  0  0  0  0
   -7.9517  -14.2409   27.7869 C   0  0  0  0  0  0  0  0  0  0  0  0
   -0.6895   -8.4456   30.8106 C   0  0  0  0  0  0  0  0  0  0  0  0
   -2.6634   -8.6908   33.5601 H   0  0  0  0  0  0  0  0  0  0  0  0
   -3.3395   -8.4982   31.8930 H   0  0  0  0  0  0  0  0  0  0  0  0
   -2.1773   -9.7597   32.2503 H   0  0  0  0  0  0  0  0  0  0  0  0
   -1.4235   -6.7558   33.7752 H   0  0  0  0  0  0  0  0  0  0  0  0
    0.2631   -5.1688   32.9859 H   0  0  0  0  0  0  0  0  0  0  0  0
    1.2861   -5.5425   30.7537 H   0  0  0  0  0  0  0  0  0  0  0  0
    1.1834   -7.1188   28.6688 H   0  0  0  0  0  0  0  0  0  0  0  0
   -0.6490   -8.1700   27.8745 H   0  0  0  0  0  0  0  0  0  0  0  0
   -1.4550  -10.8675   28.2129 H   0  0  0  0  0  0  0  0  0  0  0  0
   -1.9386  -11.7911   29.8253 H   0  0  0  0  0  0  0  0  0  0  0  0
   -6.5860  -12.4933   27.7004 H   0  0  0  0  0  0  0  0  0  0  0  0
   -6.4276  -11.7810   25.9734 H   0  0  0  0  0  0  0  0  0  0  0  0
   -7.1156  -14.6953   24.7393 H   0  0  0  0  0  0  0  0  0  0  0  0
   -9.6716  -16.7914   26.7510 H   0  0  0  0  0  0  0  0  0  0  0  0
   -7.6895  -13.9578   28.7763 H   0  0  0  0  0  0  0  0  0  0  0  0
  1  2  1  0
  2  3  2  0
  3  4  1  0
  4  5  2  0
  5  6  1  0
  6  7  1  0
  7  8  1  0
  8  9  2  0
  9 10  1  0
 10 11  1  0
 11 12  2  0
 11 13  1  0
 13 14  1  0
 14 15  1  0
 15 16  2  0
 16 17  1  0
 17 18  2  0
 18 19  1  0
 19 20  2  0
  9 21  1  0
 21  2  1  0
 21  6  2  0
 20 15  1  0
  1 22  1  0
  1 23  1  0
  1 24  1  0
  3 25  1  0
  4 26  1  0
  5 27  1  0
  7 28  1  0
  8 29  1  0
 10 30  1  0
 10 31  1  0
 14 32  1  0
 14 33  1  0
 16 34  1  0
 18 35  1  0
 20 36  1  0
M  END
>  <Energy>  (1347) 
445.17114171619136

>  <compound_id>  (1347) 
75277

>  <target_id>  (1347) 
1

>  <reference_id>  (1347) 
40

>  <inspiration_ids>  (1347) 
[40, 54]

>  <energy_score>  (1347) 
397.6169816116152

>  <distance_score>  (1347) 
6.78139356771172

>  <path>  (1347) 
/opt/xchem-fragalysis-2/maxwin/BulkDock/SCRATCH/511017/C75277-P40/C75277-P40.minimised.mol

>  <scratch_subdir>  (1347) 
/opt/xchem-fragalysis-2/maxwin/BulkDock/SCRATCH/511017/C75277-P40

>  <fragmenstein_runtime>  (1347) 
14.450525760650635

>  <fragmenstein_outcome>  (1347) 
too moved

>  <fragmenstein_mode>  (1347) 
expansion

>  <fragmenstein_error>  (1347) 


$$$$
C75277-P54
     RDKit          3D

 36 38  0  0  0  0  0  0  0  0999 V2000
   -6.4135   -5.1974   32.7636 C   0  0  0  0  0  0  0  0  0  0  0  0
   -5.8855   -5.3393   31.3665 C   0  0  0  0  0  0  0  0  0  0  0  0
   -4.5311   -4.9893   31.1352 C   0  0  0  0  0  0  0  0  0  0  0  0
   -4.0187   -4.8491   29.8535 C   0  0  0  0  0  0  0  0  0  0  0  0
   -4.8599   -5.0193   28.7596 C   0  0  0  0  0  0  0  0  0  0  0  0
   -6.1673   -5.4865   28.9892 C   0  0  0  0  0  0  0  0  0  0  0  0
   -7.1674   -5.7880   28.0936 N   0  0  0  0  0  0  0  0  0  0  0  0
   -8.2377   -6.3508   28.7395 C   0  0  0  0  0  0  0  0  0  0  0  0
   -8.0209   -6.3169   30.1027 C   0  0  0  0  0  0  0  0  0  0  0  0
   -8.9679   -6.7894   31.2052 C   0  0  0  0  0  0  0  0  0  0  0  0
  -10.0372   -7.8539   30.9197 C   0  0  0  0  0  0  0  0  0  0  0  0
  -10.9915   -7.6807   30.1709 O   0  0  0  0  0  0  0  0  0  0  0  0
   -9.8643   -9.0052   31.6806 O   0  0  0  0  0  0  0  0  0  0  0  0
  -11.0334   -9.8657   31.8356 C   0  0  0  0  0  0  0  0  0  0  0  0
  -10.7930  -11.3613   32.0366 C   0  0  0  0  0  0  0  0  0  0  0  0
   -9.6032  -11.9249   32.4441 C   0  0  0  0  0  0  0  0  0  0  0  0
   -9.4476  -13.2277   32.7873 N   0  0  0  0  0  0  0  0  0  0  0  0
  -10.5497  -13.9905   32.7229 C   0  0  0  0  0  0  0  0  0  0  0  0
  -11.7499  -13.5874   32.2962 N   0  0  0  0  0  0  0  0  0  0  0  0
  -11.8367  -12.2792   31.9594 C   0  0  0  0  0  0  0  0  0  0  0  0
   -6.6949   -5.7130   30.2624 C   0  0  0  0  0  0  0  0  0  0  0  0
   -7.1102   -5.9844   33.0398 H   0  0  0  0  0  0  0  0  0  0  0  0
   -5.5952   -5.2396   33.4760 H   0  0  0  0  0  0  0  0  0  0  0  0
   -6.9224   -4.2342   32.8677 H   0  0  0  0  0  0  0  0  0  0  0  0
   -3.8877   -4.7681   31.9871 H   0  0  0  0  0  0  0  0  0  0  0  0
   -2.9927   -4.5189   29.7115 H   0  0  0  0  0  0  0  0  0  0  0  0
   -4.5122   -4.7908   27.7592 H   0  0  0  0  0  0  0  0  0  0  0  0
   -7.0884   -5.7073   27.0879 H   0  0  0  0  0  0  0  0  0  0  0  0
   -9.0819   -6.7143   28.1644 H   0  0  0  0  0  0  0  0  0  0  0  0
   -8.4034   -7.1596   32.0604 H   0  0  0  0  0  0  0  0  0  0  0  0
   -9.5082   -5.9093   31.5788 H   0  0  0  0  0  0  0  0  0  0  0  0
  -11.7365   -9.7236   31.0102 H   0  0  0  0  0  0  0  0  0  0  0  0
  -11.5350   -9.5097   32.7442 H   0  0  0  0  0  0  0  0  0  0  0  0
   -8.7065  -11.3217   32.5528 H   0  0  0  0  0  0  0  0  0  0  0  0
  -10.4546  -15.0245   33.0332 H   0  0  0  0  0  0  0  0  0  0  0  0
  -12.8318  -11.9662   31.6489 H   0  0  0  0  0  0  0  0  0  0  0  0
  1  2  1  0
  2  3  2  0
  3  4  1  0
  4  5  2  0
  5  6  1  0
  6  7  1  0
  7  8  1  0
  8  9  2  0
  9 10  1  0
 10 11  1  0
 11 12  2  0
 11 13  1  0
 13 14  1  0
 14 15  1  0
 15 16  2  0
 16 17  1  0
 17 18  2  0
 18 19  1  0
 19 20  2  0
  9 21  1  0
 21  2  1  0
 21  6  2  0
 20 15  1  0
  1 22  1  0
  1 23  1  0
  1 24  1  0
  3 25  1  0
  4 26  1  0
  5 27  1  0
  7 28  1  0
  8 29  1  0
 10 30  1  0
 10 31  1  0
 14 32  1  0
 14 33  1  0
 16 34  1  0
 18 35  1  0
 20 36  1  0
M  END
>  <Energy>  (1348) 
34.675965486601065

>  <compound_id>  (1348) 
75277

>  <target_id>  (1348) 
1

>  <reference_id>  (1348) 
54

>  <inspiration_ids>  (1348) 
[40, 54]

>  <energy_score>  (1348) 
-12.878194617951294

>  <distance_score>  (1348) 
9.269412449723243

>  <path>  (1348) 
/opt/xchem-fragalysis-2/maxwin/BulkDock/SCRATCH/511017/C75277-P54/C75277-P54.minimised.mol

>  <scratch_subdir>  (1348) 
/opt/xchem-fragalysis-2/maxwin/BulkDock/SCRATCH/511017/C75277-P54

>  <fragmenstein_runtime>  (1348) 
17.942970275878906

>  <fragmenstein_outcome>  (1348) 
too moved

>  <fragmenstein_mode>  (1348) 
expansion

>  <fragmenstein_error>  (1348) 


$$$$
C75278-P40
     RDKit          3D

 29 31  0  0  0  0  0  0  0  0999 V2000
   -1.4212   -8.8786   31.8535 C   0  0  0  0  0  0  0  0  0  0  0  0
   -1.2712  -10.1034   31.0992 C   0  0  0  0  0  0  0  0  0  0  0  0
   -1.2749  -10.5836   29.7716 C   0  0  0  0  0  0  0  0  0  0  0  0
   -2.2602  -12.1204   29.3532 N   0  0  0  0  0  0  0  0  0  0  0  0
   -2.1847  -14.1097   29.0902 C   0  0  0  0  0  0  0  0  0  0  0  0
   -1.7059  -15.6250   28.0197 C   0  0  0  0  0  0  0  0  0  0  0  0
   -0.4824  -16.4856   28.2466 C   0  0  0  0  0  0  0  0  0  0  0  0
    0.0153  -17.6387   27.6850 N   0  0  0  0  0  0  0  0  0  0  0  0
   -0.8345  -18.2348   26.9039 C   0  0  0  0  0  0  0  0  0  0  0  0
   -2.0693  -17.8192   26.8552 N   0  0  0  0  0  0  0  0  0  0  0  0
   -2.4513  -16.6738   27.5344 C   0  0  0  0  0  0  0  0  0  0  0  0
   -0.7181   -9.1999   29.3175 C   0  0  0  0  0  0  0  0  0  0  0  0
    0.6074   -8.8737   29.1327 N   0  0  0  0  0  0  0  0  0  0  0  0
    0.8650   -7.6019   28.6977 C   0  0  0  0  0  0  0  0  0  0  0  0
   -0.0276   -6.8693   29.4001 C   0  0  0  0  0  0  0  0  0  0  0  0
   -0.8402   -7.8547   29.9985 C   0  0  0  0  0  0  0  0  0  0  0  0
   -1.4532   -7.6911   31.2223 C   0  0  0  0  0  0  0  0  0  0  0  0
   -1.4848   -8.8684   32.9316 H   0  0  0  0  0  0  0  0  0  0  0  0
   -1.0051  -10.9594   31.5977 H   0  0  0  0  0  0  0  0  0  0  0  0
   -2.6552  -11.7863   28.4581 H   0  0  0  0  0  0  0  0  0  0  0  0
   -2.1723  -14.6644   30.0283 H   0  0  0  0  0  0  0  0  0  0  0  0
   -3.1484  -14.3706   29.3766 H   0  0  0  0  0  0  0  0  0  0  0  0
    0.2072  -16.2738   29.0661 H   0  0  0  0  0  0  0  0  0  0  0  0
   -0.5439  -19.1119   26.3476 H   0  0  0  0  0  0  0  0  0  0  0  0
   -3.4753  -16.8237   27.8815 H   0  0  0  0  0  0  0  0  0  0  0  0
    1.1835   -9.3685   29.8023 H   0  0  0  0  0  0  0  0  0  0  0  0
    1.7852   -7.2927   28.2142 H   0  0  0  0  0  0  0  0  0  0  0  0
    0.0365   -5.8104   29.6260 H   0  0  0  0  0  0  0  0  0  0  0  0
   -1.5009   -6.7537   31.7622 H   0  0  0  0  0  0  0  0  0  0  0  0
  1  2  2  0
  2  3  1  0
  3  4  1  0
  4  5  1  0
  5  6  1  0
  6  7  2  0
  7  8  1  0
  8  9  2  0
  9 10  1  0
 10 11  2  0
  3 12  2  0
 12 13  1  0
 13 14  1  0
 14 15  2  0
 15 16  1  0
 16 17  2  0
 17  1  1  0
 11  6  1  0
 16 12  1  0
  1 18  1  0
  2 19  1  0
  4 20  1  0
  5 21  1  0
  5 22  1  0
  7 23  1  0
  9 24  1  0
 11 25  1  0
 13 26  1  0
 14 27  1  0
 15 28  1  0
 17 29  1  0
M  END
>  <Energy>  (1349) 
501.43679653828792

>  <compound_id>  (1349) 
75278

>  <target_id>  (1349) 
1

>  <reference_id>  (1349) 
40

>  <inspiration_ids>  (1349) 
[40, 54]

>  <energy_score>  (1349) 
483.738265491771

>  <distance_score>  (1349) 
8.76932720841497

>  <path>  (1349) 
/opt/xchem-fragalysis-2/maxwin/BulkDock/SCRATCH/511017/C75278-P40/C75278-P40.minimised.mol

>  <scratch_subdir>  (1349) 
/opt/xchem-fragalysis-2/maxwin/BulkDock/SCRATCH/511017/C75278-P40

>  <fragmenstein_runtime>  (1349) 
17.681209802627563

>  <fragmenstein_outcome>  (1349) 
too moved

>  <fragmenstein_mode>  (1349) 
expansion

>  <fragmenstein_error>  (1349) 


$$$$
C75278-P54
     RDKit          3D

 29 31  0  0  0  0  0  0  0  0999 V2000
   -6.9161   -9.8258   29.4449 C   0  0  0  0  0  0  0  0  0  0  0  0
   -7.0753  -11.4708   28.8695 C   0  0  0  0  0  0  0  0  0  0  0  0
   -6.9471  -12.0908   27.3186 C   0  0  0  0  0  0  0  0  0  0  0  0
   -7.7994  -13.7664   26.8130 N   0  0  0  0  0  0  0  0  0  0  0  0
   -8.2048  -15.7865   26.9830 C   0  0  0  0  0  0  0  0  0  0  0  0
   -8.9854  -17.5516   27.7292 C   0  0  0  0  0  0  0  0  0  0  0  0
   -9.3782  -19.2746   27.4890 C   0  0  0  0  0  0  0  0  0  0  0  0
   -9.9490  -20.6919   28.0308 N   0  0  0  0  0  0  0  0  0  0  0  0
  -10.7324  -20.6887   29.0470 C   0  0  0  0  0  0  0  0  0  0  0  0
  -10.8192  -19.5595   29.6451 N   0  0  0  0  0  0  0  0  0  0  0  0
   -9.9925  -18.3973   29.0447 C   0  0  0  0  0  0  0  0  0  0  0  0
   -5.8171  -11.0078   27.5356 C   0  0  0  0  0  0  0  0  0  0  0  0
   -5.6096  -10.0276   26.5480 N   0  0  0  0  0  0  0  0  0  0  0  0
   -4.2042   -9.9662   26.3628 C   0  0  0  0  0  0  0  0  0  0  0  0
   -3.9545   -9.4949   27.5583 C   0  0  0  0  0  0  0  0  0  0  0  0
   -5.2718   -9.7507   28.1394 C   0  0  0  0  0  0  0  0  0  0  0  0
   -6.0846   -8.8974   28.8973 C   0  0  0  0  0  0  0  0  0  0  0  0
   -7.6932   -9.2716   29.9736 H   0  0  0  0  0  0  0  0  0  0  0  0
   -7.7353  -11.9524   29.6137 H   0  0  0  0  0  0  0  0  0  0  0  0
   -6.8007  -13.9722   27.0176 H   0  0  0  0  0  0  0  0  0  0  0  0
   -8.7225  -15.7821   26.0229 H   0  0  0  0  0  0  0  0  0  0  0  0
   -7.2093  -15.7533   27.2084 H   0  0  0  0  0  0  0  0  0  0  0  0
   -9.9909  -19.4365   26.5826 H   0  0  0  0  0  0  0  0  0  0  0  0
  -11.2311  -21.5721   29.3973 H   0  0  0  0  0  0  0  0  0  0  0  0
  -10.1127  -18.0350   30.0537 H   0  0  0  0  0  0  0  0  0  0  0  0
   -6.2522   -9.8514   25.7787 H   0  0  0  0  0  0  0  0  0  0  0  0
   -3.8494   -9.7339   25.3974 H   0  0  0  0  0  0  0  0  0  0  0  0
   -3.2139   -8.7230   27.7131 H   0  0  0  0  0  0  0  0  0  0  0  0
   -6.0257   -7.8750   29.2373 H   0  0  0  0  0  0  0  0  0  0  0  0
  1  2  2  0
  2  3  1  0
  3  4  1  0
  4  5  1  0
  5  6  1  0
  6  7  2  0
  7  8  1  0
  8  9  2  0
  9 10  1  0
 10 11  2  0
  3 12  2  0
 12 13  1  0
 13 14  1  0
 14 15  2  0
 15 16  1  0
 16 17  2  0
 17  1  1  0
 11  6  1  0
 16 12  1  0
  1 18  1  0
  2 19  1  0
  4 20  1  0
  5 21  1  0
  5 22  1  0
  7 23  1  0
  9 24  1  0
 11 25  1  0
 13 26  1  0
 14 27  1  0
 15 28  1  0
 17 29  1  0
M  END
>  <Energy>  (1350) 
1068.1764623686556

>  <compound_id>  (1350) 
75278

>  <target_id>  (1350) 
1

>  <reference_id>  (1350) 
54

>  <inspiration_ids>  (1350) 
[40, 54]

>  <energy_score>  (1350) 
1050.4779313221345

>  <distance_score>  (1350) 
7.206487780015816

>  <path>  (1350) 
/opt/xchem-fragalysis-2/maxwin/BulkDock/SCRATCH/511017/C75278-P54/C75278-P54.minimised.mol

>  <scratch_subdir>  (1350) 
/opt/xchem-fragalysis-2/maxwin/BulkDock/SCRATCH/511017/C75278-P54

>  <fragmenstein_runtime>  (1350) 
8.509235143661499

>  <fragmenstein_outcome>  (1350) 
too moved

>  <fragmenstein_mode>  (1350) 
expansion

>  <fragmenstein_error>  (1350) 


$$$$
C75281-P40
     RDKit          3D

 40 42  0  0  0  0  0  0  0  0999 V2000
   -1.8382  -15.0595   29.1660 C   0  0  0  0  0  0  0  0  0  0  0  0
   -2.8971  -14.8359   28.4177 N   0  0  0  0  0  0  0  0  0  0  0  0
   -4.3080  -16.2473   28.7832 C   0  0  0  0  0  0  0  0  0  0  0  0
   -5.1480  -15.9699   29.6929 O   0  0  0  0  0  0  0  0  0  0  0  0
   -4.9023  -18.1002   27.8170 C   0  0  0  0  0  0  0  0  0  0  0  0
   -5.9644  -19.7308   27.0019 C   0  0  0  0  0  0  0  0  0  0  0  0
   -7.6008  -20.9309   27.4491 C   0  0  0  0  0  0  0  0  0  0  0  0
   -9.3773  -20.8383   27.7131 C   0  0  0  0  0  0  0  0  0  0  0  0
  -10.3237  -21.9208   28.1813 N   0  0  0  0  0  0  0  0  0  0  0  0
   -9.7595  -23.1118   28.0313 C   0  0  0  0  0  0  0  0  0  0  0  0
   -8.3823  -23.2450   27.7885 N   0  0  0  0  0  0  0  0  0  0  0  0
   -7.3750  -22.2412   27.6097 C   0  0  0  0  0  0  0  0  0  0  0  0
   -2.6336  -12.8735   29.1393 C   0  0  0  0  0  0  0  0  0  0  0  0
   -2.2921  -11.5069   28.2219 C   0  0  0  0  0  0  0  0  0  0  0  0
   -1.0088  -10.2352   28.5515 N   0  0  0  0  0  0  0  0  0  0  0  0
   -0.6478   -8.5096   28.4468 C   0  0  0  0  0  0  0  0  0  0  0  0
   -0.6742  -10.2454   29.8313 C   0  0  0  0  0  0  0  0  0  0  0  0
   -0.1360   -8.7624   30.6238 C   0  0  0  0  0  0  0  0  0  0  0  0
   -0.7104   -8.0525   31.6552 C   0  0  0  0  0  0  0  0  0  0  0  0
   -1.8047   -8.6994   32.0018 C   0  0  0  0  0  0  0  0  0  0  0  0
   -1.8868   -9.9427   31.2578 C   0  0  0  0  0  0  0  0  0  0  0  0
   -1.6305  -11.3445   30.0852 C   0  0  0  0  0  0  0  0  0  0  0  0
   -1.3914  -15.8763   28.6106 H   0  0  0  0  0  0  0  0  0  0  0  0
   -1.5137  -14.2464   28.7043 H   0  0  0  0  0  0  0  0  0  0  0  0
   -2.1596  -15.1560   30.1965 H   0  0  0  0  0  0  0  0  0  0  0  0
   -5.9098  -17.9620   28.4332 H   0  0  0  0  0  0  0  0  0  0  0  0
   -5.4846  -17.7739   27.1164 H   0  0  0  0  0  0  0  0  0  0  0  0
   -5.2338  -20.4410   26.5651 H   0  0  0  0  0  0  0  0  0  0  0  0
   -6.0807  -19.3924   25.9966 H   0  0  0  0  0  0  0  0  0  0  0  0
  -10.0458  -20.6015   26.9253 H   0  0  0  0  0  0  0  0  0  0  0  0
  -10.3515  -24.0101   28.1133 H   0  0  0  0  0  0  0  0  0  0  0  0
   -6.3355  -22.4158   27.6643 H   0  0  0  0  0  0  0  0  0  0  0  0
   -2.3962  -11.5331   27.1367 H   0  0  0  0  0  0  0  0  0  0  0  0
   -1.3149   -7.9359   29.0949 H   0  0  0  0  0  0  0  0  0  0  0  0
    0.4456   -8.4646   28.5313 H   0  0  0  0  0  0  0  0  0  0  0  0
   -0.7923   -8.0727   27.5077 H   0  0  0  0  0  0  0  0  0  0  0  0
    0.7918   -8.3495   30.2382 H   0  0  0  0  0  0  0  0  0  0  0  0
   -0.3318   -7.1453   32.0927 H   0  0  0  0  0  0  0  0  0  0  0  0
   -2.4846   -8.4540   32.7920 H   0  0  0  0  0  0  0  0  0  0  0  0
   -1.0221  -10.3442   31.8264 H   0  0  0  0  0  0  0  0  0  0  0  0
  1  2  1  0
  2  3  1  0
  3  4  2  0
  3  5  1  0
  5  6  1  0
  6  7  1  0
  7  8  2  0
  8  9  1  0
  9 10  2  0
 10 11  1  0
 11 12  2  0
  2 13  1  0
 13 14  2  0
 14 15  1  0
 15 16  1  0
 15 17  1  0
 17 18  2  0
 18 19  1  0
 19 20  2  0
 20 21  1  0
 21 22  2  0
 12  7  1  0
 22 13  1  0
 22 17  1  0
  1 23  1  0
  1 24  1  0
  1 25  1  0
  5 26  1  0
  5 27  1  0
  6 28  1  0
  6 29  1  0
  8 30  1  0
 10 31  1  0
 12 32  1  0
 14 33  1  0
 16 34  1  0
 16 35  1  0
 16 36  1  0
 18 37  1  0
 19 38  1  0
 20 39  1  0
 21 40  1  0
M  END
>  <Energy>  (1351) 
1700.3566394820355

>  <compound_id>  (1351) 
75281

>  <target_id>  (1351) 
1

>  <reference_id>  (1351) 
40

>  <inspiration_ids>  (1351) 
[40, 54]

>  <energy_score>  (1351) 
1645.6069315117193

>  <distance_score>  (1351) 
4.791922233297274

>  <path>  (1351) 
/opt/xchem-fragalysis-2/maxwin/BulkDock/SCRATCH/511017/C75281-P40/C75281-P40.minimised.mol

>  <scratch_subdir>  (1351) 
/opt/xchem-fragalysis-2/maxwin/BulkDock/SCRATCH/511017/C75281-P40

>  <fragmenstein_runtime>  (1351) 
16.000346899032593

>  <fragmenstein_outcome>  (1351) 
too moved

>  <fragmenstein_mode>  (1351) 
expansion

>  <fragmenstein_error>  (1351) 


$$$$
C75281-P54
     RDKit          3D

 40 42  0  0  0  0  0  0  0  0999 V2000
   -2.2834  -12.8328   29.0270 C   0  0  0  0  0  0  0  0  0  0  0  0
   -3.4818  -12.7766   27.6450 N   0  0  0  0  0  0  0  0  0  0  0  0
   -3.4680  -14.3897   26.5344 C   0  0  0  0  0  0  0  0  0  0  0  0
   -2.7099  -14.3825   25.5813 O   0  0  0  0  0  0  0  0  0  0  0  0
   -4.6961  -16.1445   26.4545 C   0  0  0  0  0  0  0  0  0  0  0  0
   -5.4500  -18.0018   25.9514 C   0  0  0  0  0  0  0  0  0  0  0  0
   -5.5338  -19.4631   26.9593 C   0  0  0  0  0  0  0  0  0  0  0  0
   -6.8166  -19.8483   27.3445 C   0  0  0  0  0  0  0  0  0  0  0  0
   -7.2469  -20.9005   27.9309 N   0  0  0  0  0  0  0  0  0  0  0  0
   -6.1943  -21.4621   28.3720 C   0  0  0  0  0  0  0  0  0  0  0  0
   -4.9748  -21.2047   27.8543 N   0  0  0  0  0  0  0  0  0  0  0  0
   -4.9701  -20.6128   26.7415 C   0  0  0  0  0  0  0  0  0  0  0  0
   -2.6734  -11.1659   27.4295 C   0  0  0  0  0  0  0  0  0  0  0  0
   -3.4116   -9.8706   26.8380 C   0  0  0  0  0  0  0  0  0  0  0  0
   -2.5798   -8.5140   26.8056 N   0  0  0  0  0  0  0  0  0  0  0  0
   -1.5506   -7.7650   25.9599 C   0  0  0  0  0  0  0  0  0  0  0  0
   -2.3085   -8.2544   28.0664 C   0  0  0  0  0  0  0  0  0  0  0  0
   -2.6108   -7.1068   29.2732 C   0  0  0  0  0  0  0  0  0  0  0  0
   -2.0896   -7.5495   30.7775 C   0  0  0  0  0  0  0  0  0  0  0  0
   -1.0916   -9.0455   30.9143 C   0  0  0  0  0  0  0  0  0  0  0  0
   -0.8358  -10.0177   29.7768 C   0  0  0  0  0  0  0  0  0  0  0  0
   -1.6436   -9.8272   28.4639 C   0  0  0  0  0  0  0  0  0  0  0  0
   -1.2531  -12.6856   28.6154 H   0  0  0  0  0  0  0  0  0  0  0  0
   -2.7602  -13.5176   29.7088 H   0  0  0  0  0  0  0  0  0  0  0  0
   -2.1240  -12.2886   29.9940 H   0  0  0  0  0  0  0  0  0  0  0  0
   -3.6158  -16.4395   26.4679 H   0  0  0  0  0  0  0  0  0  0  0  0
   -5.4870  -15.8103   27.1696 H   0  0  0  0  0  0  0  0  0  0  0  0
   -6.4701  -18.0946   25.8019 H   0  0  0  0  0  0  0  0  0  0  0  0
   -4.9562  -18.4158   25.0414 H   0  0  0  0  0  0  0  0  0  0  0  0
   -7.5835  -19.2218   27.0515 H   0  0  0  0  0  0  0  0  0  0  0  0
   -6.3123  -22.1766   29.1620 H   0  0  0  0  0  0  0  0  0  0  0  0
   -4.5838  -21.0479   25.8484 H   0  0  0  0  0  0  0  0  0  0  0  0
   -4.2534   -9.8824   26.1860 H   0  0  0  0  0  0  0  0  0  0  0  0
   -1.6018   -6.6981   26.2109 H   0  0  0  0  0  0  0  0  0  0  0  0
   -0.5196   -8.0024   26.2386 H   0  0  0  0  0  0  0  0  0  0  0  0
   -1.6786   -7.8670   24.8993 H   0  0  0  0  0  0  0  0  0  0  0  0
   -3.1434   -6.1954   29.0376 H   0  0  0  0  0  0  0  0  0  0  0  0
   -2.1884   -6.8367   31.5782 H   0  0  0  0  0  0  0  0  0  0  0  0
   -0.1316   -8.8141   31.4550 H   0  0  0  0  0  0  0  0  0  0  0  0
   -0.0674  -10.7413   29.6706 H   0  0  0  0  0  0  0  0  0  0  0  0
  1  2  1  0
  2  3  1  0
  3  4  2  0
  3  5  1  0
  5  6  1  0
  6  7  1  0
  7  8  2  0
  8  9  1  0
  9 10  2  0
 10 11  1  0
 11 12  2  0
  2 13  1  0
 13 14  2  0
 14 15  1  0
 15 16  1  0
 15 17  1  0
 17 18  2  0
 18 19  1  0
 19 20  2  0
 20 21  1  0
 21 22  2  0
 12  7  1  0
 22 13  1  0
 22 17  1  0
  1 23  1  0
  1 24  1  0
  1 25  1  0
  5 26  1  0
  5 27  1  0
  6 28  1  0
  6 29  1  0
  8 30  1  0
 10 31  1  0
 12 32  1  0
 14 33  1  0
 16 34  1  0
 16 35  1  0
 16 36  1  0
 18 37  1  0
 19 38  1  0
 20 39  1  0
 21 40  1  0
M  END
>  <Energy>  (1352) 
981.03270674609632

>  <compound_id>  (1352) 
75281

>  <target_id>  (1352) 
1

>  <reference_id>  (1352) 
54

>  <inspiration_ids>  (1352) 
[40, 54]

>  <energy_score>  (1352) 
926.2829987757783

>  <distance_score>  (1352) 
5.568788057292583

>  <path>  (1352) 
/opt/xchem-fragalysis-2/maxwin/BulkDock/SCRATCH/511017/C75281-P54/C75281-P54.minimised.mol

>  <scratch_subdir>  (1352) 
/opt/xchem-fragalysis-2/maxwin/BulkDock/SCRATCH/511017/C75281-P54

>  <fragmenstein_runtime>  (1352) 
13.292339563369751

>  <fragmenstein_outcome>  (1352) 
too moved

>  <fragmenstein_mode>  (1352) 
expansion

>  <fragmenstein_error>  (1352) 


$$$$
C75282-P40
     RDKit          3D

 43 45  0  0  0  0  0  0  0  0999 V2000
   -9.2901  -20.6423   27.6671 C   0  0  0  0  0  0  0  0  0  0  0  0
   -8.7672  -18.9615   28.3207 C   0  0  0  0  0  0  0  0  0  0  0  0
   -7.8247  -16.9425   28.2667 C   0  0  0  0  0  0  0  0  0  0  0  0
   -8.4960  -16.2054   27.5769 O   0  0  0  0  0  0  0  0  0  0  0  0
   -6.2957  -16.0161   29.2734 N   0  0  0  0  0  0  0  0  0  0  0  0
   -5.7766  -13.9804   29.5171 C   0  0  0  0  0  0  0  0  0  0  0  0
   -4.1923  -12.4022   29.2321 C   0  0  0  0  0  0  0  0  0  0  0  0
   -2.4830  -11.2447   29.7215 C   0  0  0  0  0  0  0  0  0  0  0  0
   -1.3113  -10.4588   29.0301 C   0  0  0  0  0  0  0  0  0  0  0  0
   -0.4985   -9.3642   29.4815 N   0  0  0  0  0  0  0  0  0  0  0  0
    0.0536   -8.2322   28.7632 C   0  0  0  0  0  0  0  0  0  0  0  0
   -0.7271   -9.0710   30.7637 C   0  0  0  0  0  0  0  0  0  0  0  0
   -0.1630   -7.9915   31.5503 C   0  0  0  0  0  0  0  0  0  0  0  0
   -0.6420   -7.6658   32.7761 C   0  0  0  0  0  0  0  0  0  0  0  0
   -1.8514   -8.1935   33.0254 C   0  0  0  0  0  0  0  0  0  0  0  0
   -2.4600   -9.0526   32.0693 C   0  0  0  0  0  0  0  0  0  0  0  0
   -1.7992   -9.9107   31.0361 C   0  0  0  0  0  0  0  0  0  0  0  0
  -10.2665  -20.3540   29.1901 C   0  0  0  0  0  0  0  0  0  0  0  0
  -11.6925  -20.1972   29.4884 C   0  0  0  0  0  0  0  0  0  0  0  0
  -12.6623  -20.9735   29.9275 N   0  0  0  0  0  0  0  0  0  0  0  0
  -12.1498  -22.1065   30.0723 C   0  0  0  0  0  0  0  0  0  0  0  0
  -11.5430  -22.6527   29.0922 N   0  0  0  0  0  0  0  0  0  0  0  0
  -10.4894  -21.9464   28.9690 C   0  0  0  0  0  0  0  0  0  0  0  0
  -10.3171  -21.1324   27.4357 H   0  0  0  0  0  0  0  0  0  0  0  0
   -8.2611  -21.1778   27.5520 H   0  0  0  0  0  0  0  0  0  0  0  0
   -9.8430  -20.5200   26.7752 H   0  0  0  0  0  0  0  0  0  0  0  0
   -8.1514  -19.0063   29.1919 H   0  0  0  0  0  0  0  0  0  0  0  0
   -5.7502  -16.7210   29.7472 H   0  0  0  0  0  0  0  0  0  0  0  0
   -6.6924  -13.6806   28.9960 H   0  0  0  0  0  0  0  0  0  0  0  0
   -5.9782  -13.9619   30.5957 H   0  0  0  0  0  0  0  0  0  0  0  0
   -4.3217  -11.9975   28.2269 H   0  0  0  0  0  0  0  0  0  0  0  0
   -3.2255  -12.9626   29.2868 H   0  0  0  0  0  0  0  0  0  0  0  0
   -1.2153  -10.6205   27.9920 H   0  0  0  0  0  0  0  0  0  0  0  0
    0.1763   -7.3189   29.3416 H   0  0  0  0  0  0  0  0  0  0  0  0
    1.0111   -8.4437   28.3212 H   0  0  0  0  0  0  0  0  0  0  0  0
   -0.6828   -7.9513   28.0492 H   0  0  0  0  0  0  0  0  0  0  0  0
    0.6841   -7.4181   31.2047 H   0  0  0  0  0  0  0  0  0  0  0  0
   -0.1749   -6.9396   33.4273 H   0  0  0  0  0  0  0  0  0  0  0  0
   -2.3503   -7.9153   33.9445 H   0  0  0  0  0  0  0  0  0  0  0  0
   -3.5323   -8.8847   31.9907 H   0  0  0  0  0  0  0  0  0  0  0  0
  -12.2799  -19.4036   29.0423 H   0  0  0  0  0  0  0  0  0  0  0  0
  -11.7488  -22.3356   31.0484 H   0  0  0  0  0  0  0  0  0  0  0  0
   -9.7910  -22.5982   28.4163 H   0  0  0  0  0  0  0  0  0  0  0  0
  1  2  1  0
  2  3  1  0
  3  4  2  0
  3  5  1  0
  5  6  1  0
  6  7  1  0
  7  8  1  0
  8  9  2  0
  9 10  1  0
 10 11  1  0
 10 12  1  0
 12 13  2  0
 13 14  1  0
 14 15  2  0
 15 16  1  0
 16 17  2  0
  2 18  1  0
 18 19  2  0
 19 20  1  0
 20 21  2  0
 21 22  1  0
 22 23  2  0
 17  8  1  0
 23 18  1  0
 17 12  1  0
  1 24  1  0
  1 25  1  0
  1 26  1  0
  2 27  1  0
  5 28  1  0
  6 29  1  0
  6 30  1  0
  7 31  1  0
  7 32  1  0
  9 33  1  0
 11 34  1  0
 11 35  1  0
 11 36  1  0
 13 37  1  0
 14 38  1  0
 15 39  1  0
 16 40  1  0
 19 41  1  0
 21 42  1  0
 23 43  1  0
M  END
>  <Energy>  (1353) 
1637.9445628924086

>  <compound_id>  (1353) 
75282

>  <target_id>  (1353) 
1

>  <reference_id>  (1353) 
40

>  <inspiration_ids>  (1353) 
[40, 54]

>  <energy_score>  (1353) 
1599.1403035055487

>  <distance_score>  (1353) 
4.0808801438901225

>  <path>  (1353) 
/opt/xchem-fragalysis-2/maxwin/BulkDock/SCRATCH/511017/C75282-P40/C75282-P40.minimised.mol

>  <scratch_subdir>  (1353) 
/opt/xchem-fragalysis-2/maxwin/BulkDock/SCRATCH/511017/C75282-P40

>  <fragmenstein_runtime>  (1353) 
20.22081446647644

>  <fragmenstein_outcome>  (1353) 
too moved

>  <fragmenstein_mode>  (1353) 
expansion

>  <fragmenstein_error>  (1353) 


$$$$
C75282-P54
     RDKit          3D

 43 45  0  0  0  0  0  0  0  0999 V2000
  -10.8323  -20.1597   27.4227 C   0  0  0  0  0  0  0  0  0  0  0  0
   -9.6380  -19.1404   28.2343 C   0  0  0  0  0  0  0  0  0  0  0  0
   -8.0721  -17.7635   27.5277 C   0  0  0  0  0  0  0  0  0  0  0  0
   -7.1043  -18.4886   26.9147 O   0  0  0  0  0  0  0  0  0  0  0  0
   -8.1526  -15.9410   27.6172 N   0  0  0  0  0  0  0  0  0  0  0  0
   -6.8967  -14.4469   26.9776 C   0  0  0  0  0  0  0  0  0  0  0  0
   -6.4372  -12.3806   27.4137 C   0  0  0  0  0  0  0  0  0  0  0  0
   -5.2377  -10.7204   27.6085 C   0  0  0  0  0  0  0  0  0  0  0  0
   -4.0779  -10.0822   26.7880 C   0  0  0  0  0  0  0  0  0  0  0  0
   -3.1587   -9.0235   27.2201 N   0  0  0  0  0  0  0  0  0  0  0  0
   -2.0675   -8.1616   26.6326 C   0  0  0  0  0  0  0  0  0  0  0  0
   -3.8431   -8.3656   28.1609 C   0  0  0  0  0  0  0  0  0  0  0  0
   -3.5011   -6.9453   28.7444 C   0  0  0  0  0  0  0  0  0  0  0  0
   -4.3268   -6.1578   29.4482 C   0  0  0  0  0  0  0  0  0  0  0  0
   -5.4305   -6.8869   29.7091 C   0  0  0  0  0  0  0  0  0  0  0  0
   -5.9215   -8.4171   29.1263 C   0  0  0  0  0  0  0  0  0  0  0  0
   -5.1526   -9.2567   28.3108 C   0  0  0  0  0  0  0  0  0  0  0  0
  -10.4305  -19.6056   29.7202 C   0  0  0  0  0  0  0  0  0  0  0  0
  -10.7307  -18.9674   30.9019 C   0  0  0  0  0  0  0  0  0  0  0  0
  -11.3590  -19.4978   31.9847 N   0  0  0  0  0  0  0  0  0  0  0  0
  -11.6242  -20.7991   31.9551 C   0  0  0  0  0  0  0  0  0  0  0  0
  -11.3210  -21.6069   30.9497 N   0  0  0  0  0  0  0  0  0  0  0  0
  -10.7258  -21.0000   29.9011 C   0  0  0  0  0  0  0  0  0  0  0  0
  -11.7717  -20.1438   27.9765 H   0  0  0  0  0  0  0  0  0  0  0  0
  -10.5255  -21.2137   27.3843 H   0  0  0  0  0  0  0  0  0  0  0  0
  -11.1239  -19.9224   26.4161 H   0  0  0  0  0  0  0  0  0  0  0  0
   -9.0272  -20.0844   28.2051 H   0  0  0  0  0  0  0  0  0  0  0  0
   -8.8714  -15.6964   28.1720 H   0  0  0  0  0  0  0  0  0  0  0  0
   -7.8795  -14.0060   26.6913 H   0  0  0  0  0  0  0  0  0  0  0  0
   -6.0263  -14.6707   27.7116 H   0  0  0  0  0  0  0  0  0  0  0  0
   -6.2859  -12.3977   28.5032 H   0  0  0  0  0  0  0  0  0  0  0  0
   -7.2639  -11.8909   26.8996 H   0  0  0  0  0  0  0  0  0  0  0  0
   -4.0915  -10.1049   25.7177 H   0  0  0  0  0  0  0  0  0  0  0  0
   -1.9764   -8.2242   25.5614 H   0  0  0  0  0  0  0  0  0  0  0  0
   -1.1481   -8.2893   27.1629 H   0  0  0  0  0  0  0  0  0  0  0  0
   -2.0283   -7.1073   26.8518 H   0  0  0  0  0  0  0  0  0  0  0  0
   -2.5470   -6.4935   28.5416 H   0  0  0  0  0  0  0  0  0  0  0  0
   -4.0836   -5.1978   29.8698 H   0  0  0  0  0  0  0  0  0  0  0  0
   -6.0339   -6.4333   30.5014 H   0  0  0  0  0  0  0  0  0  0  0  0
   -6.8804   -8.8126   29.4504 H   0  0  0  0  0  0  0  0  0  0  0  0
  -10.3541  -18.0025   31.1829 H   0  0  0  0  0  0  0  0  0  0  0  0
  -12.0824  -21.2205   32.8366 H   0  0  0  0  0  0  0  0  0  0  0  0
  -10.3947  -21.7547   29.1923 H   0  0  0  0  0  0  0  0  0  0  0  0
  1  2  1  0
  2  3  1  0
  3  4  2  0
  3  5  1  0
  5  6  1  0
  6  7  1  0
  7  8  1  0
  8  9  2  0
  9 10  1  0
 10 11  1  0
 10 12  1  0
 12 13  2  0
 13 14  1  0
 14 15  2  0
 15 16  1  0
 16 17  2  0
  2 18  1  0
 18 19  2  0
 19 20  1  0
 20 21  2  0
 21 22  1  0
 22 23  2  0
 17  8  1  0
 23 18  1  0
 17 12  1  0
  1 24  1  0
  1 25  1  0
  1 26  1  0
  2 27  1  0
  5 28  1  0
  6 29  1  0
  6 30  1  0
  7 31  1  0
  7 32  1  0
  9 33  1  0
 11 34  1  0
 11 35  1  0
 11 36  1  0
 13 37  1  0
 14 38  1  0
 15 39  1  0
 16 40  1  0
 19 41  1  0
 21 42  1  0
 23 43  1  0
M  END
>  <Energy>  (1354) 
904.81500645168217

>  <compound_id>  (1354) 
75282

>  <target_id>  (1354) 
1

>  <reference_id>  (1354) 
54

>  <inspiration_ids>  (1354) 
[40, 54]

>  <energy_score>  (1354) 
866.0107470648094

>  <distance_score>  (1354) 
5.384166690033777

>  <path>  (1354) 
/opt/xchem-fragalysis-2/maxwin/BulkDock/SCRATCH/511017/C75282-P54/C75282-P54.minimised.mol

>  <scratch_subdir>  (1354) 
/opt/xchem-fragalysis-2/maxwin/BulkDock/SCRATCH/511017/C75282-P54

>  <fragmenstein_runtime>  (1354) 
13.195726156234741

>  <fragmenstein_outcome>  (1354) 
too moved

>  <fragmenstein_mode>  (1354) 
expansion

>  <fragmenstein_error>  (1354) 


$$$$
C75284-P40
     RDKit          3D

 32 34  0  0  0  0  0  0  0  0999 V2000
   -1.3059   -8.2898   30.9869 C   0  0  0  0  0  0  0  0  0  0  0  0
   -1.1140   -8.8322   29.4133 N   0  0  0  0  0  0  0  0  0  0  0  0
   -0.2537   -8.0280   28.8019 C   0  0  0  0  0  0  0  0  0  0  0  0
    0.4833   -9.1029   29.1564 C   0  0  0  0  0  0  0  0  0  0  0  0
   -0.4673  -10.2830   29.4881 C   0  0  0  0  0  0  0  0  0  0  0  0
   -1.3648  -11.0074   30.2440 C   0  0  0  0  0  0  0  0  0  0  0  0
   -3.0137  -11.8285   29.7228 C   0  0  0  0  0  0  0  0  0  0  0  0
   -4.4937  -12.5136   29.0899 C   0  0  0  0  0  0  0  0  0  0  0  0
   -6.2305  -14.5031   29.1772 S   0  0  0  0  0  0  0  0  0  0  0  0
   -6.1683  -14.5754   30.6362 O   0  0  0  0  0  0  0  0  0  0  0  0
   -7.2727  -13.8362   28.3982 O   0  0  0  0  0  0  0  0  0  0  0  0
   -7.2418  -16.6358   28.2487 N   0  0  0  0  0  0  0  0  0  0  0  0
   -8.0916  -18.5753   28.0024 C   0  0  0  0  0  0  0  0  0  0  0  0
   -9.2689  -19.7974   28.2678 C   0  0  0  0  0  0  0  0  0  0  0  0
  -10.3378  -21.2908   28.4741 N   0  0  0  0  0  0  0  0  0  0  0  0
   -9.6935  -22.4516   28.2123 C   0  0  0  0  0  0  0  0  0  0  0  0
   -8.2556  -22.2250   27.8675 N   0  0  0  0  0  0  0  0  0  0  0  0
   -7.7765  -20.5606   27.6887 C   0  0  0  0  0  0  0  0  0  0  0  0
   -2.9314  -11.7529   28.3940 C   0  0  0  0  0  0  0  0  0  0  0  0
   -1.4357  -10.4764   28.5890 C   0  0  0  0  0  0  0  0  0  0  0  0
   -1.7924   -7.3256   30.8217 H   0  0  0  0  0  0  0  0  0  0  0  0
   -0.2912   -8.1711   31.3728 H   0  0  0  0  0  0  0  0  0  0  0  0
   -1.9171   -8.9838   31.5605 H   0  0  0  0  0  0  0  0  0  0  0  0
    0.0013   -6.9896   28.9736 H   0  0  0  0  0  0  0  0  0  0  0  0
    1.1822   -9.0432   28.3479 H   0  0  0  0  0  0  0  0  0  0  0  0
   -1.0876  -10.8155   31.2755 H   0  0  0  0  0  0  0  0  0  0  0  0
   -3.6251  -11.1096   30.2830 H   0  0  0  0  0  0  0  0  0  0  0  0
   -8.0587  -16.1045   27.9068 H   0  0  0  0  0  0  0  0  0  0  0  0
   -9.6516  -20.4334   27.3136 H   0  0  0  0  0  0  0  0  0  0  0  0
  -10.1427  -23.4290   28.1923 H   0  0  0  0  0  0  0  0  0  0  0  0
   -6.7330  -20.8897   27.4511 H   0  0  0  0  0  0  0  0  0  0  0  0
   -2.8789  -12.0083   27.2905 H   0  0  0  0  0  0  0  0  0  0  0  0
  1  2  1  0
  2  3  1  0
  3  4  2  0
  4  5  1  0
  5  6  2  0
  6  7  1  0
  7  8  2  0
  8  9  1  0
  9 10  2  0
  9 11  2  0
  9 12  1  0
 12 13  1  0
 13 14  2  0
 14 15  1  0
 15 16  2  0
 16 17  1  0
 17 18  2  0
  8 19  1  0
 19 20  2  0
 20  2  1  0
 20  5  1  0
 18 13  1  0
  1 21  1  0
  1 22  1  0
  1 23  1  0
  3 24  1  0
  4 25  1  0
  6 26  1  0
  7 27  1  0
 12 28  1  0
 14 29  1  0
 16 30  1  0
 18 31  1  0
 19 32  1  0
M  END
>  <Energy>  (1355) 
2234.2272163343982

>  <compound_id>  (1355) 
75284

>  <target_id>  (1355) 
1

>  <reference_id>  (1355) 
40

>  <inspiration_ids>  (1355) 
[40, 54]

>  <energy_score>  (1355) 
2202.049618342676

>  <distance_score>  (1355) 
5.6490104625884054

>  <path>  (1355) 
/opt/xchem-fragalysis-2/maxwin/BulkDock/SCRATCH/511017/C75284-P40/C75284-P40.minimised.mol

>  <scratch_subdir>  (1355) 
/opt/xchem-fragalysis-2/maxwin/BulkDock/SCRATCH/511017/C75284-P40

>  <fragmenstein_runtime>  (1355) 
14.258480548858643

>  <fragmenstein_outcome>  (1355) 
too moved

>  <fragmenstein_mode>  (1355) 
expansion

>  <fragmenstein_error>  (1355) 


$$$$
C75284-P54
     RDKit          3D

 32 34  0  0  0  0  0  0  0  0999 V2000
   -1.3280   -6.2130   26.2744 C   0  0  0  0  0  0  0  0  0  0  0  0
   -0.8663   -7.4034   25.6267 N   0  0  0  0  0  0  0  0  0  0  0  0
    0.1429   -7.5461   24.7493 C   0  0  0  0  0  0  0  0  0  0  0  0
    0.8031   -8.6704   25.1604 C   0  0  0  0  0  0  0  0  0  0  0  0
   -0.1492   -9.9412   24.8875 C   0  0  0  0  0  0  0  0  0  0  0  0
   -0.7554  -11.9246   25.5189 C   0  0  0  0  0  0  0  0  0  0  0  0
   -2.2296  -12.1448   26.7341 C   0  0  0  0  0  0  0  0  0  0  0  0
   -3.6550  -10.9518   27.2647 C   0  0  0  0  0  0  0  0  0  0  0  0
   -5.9741  -11.8698   27.7047 S   0  0  0  0  0  0  0  0  0  0  0  0
   -6.6010  -11.5520   28.9357 O   0  0  0  0  0  0  0  0  0  0  0  0
   -6.8945  -11.6223   26.5706 O   0  0  0  0  0  0  0  0  0  0  0  0
   -6.2838  -14.1811   27.4644 N   0  0  0  0  0  0  0  0  0  0  0  0
   -7.7895  -15.5367   27.0038 C   0  0  0  0  0  0  0  0  0  0  0  0
   -8.0294  -17.2405   27.2928 C   0  0  0  0  0  0  0  0  0  0  0  0
   -8.9936  -18.9425   27.2925 N   0  0  0  0  0  0  0  0  0  0  0  0
   -9.7476  -19.2727   28.2589 C   0  0  0  0  0  0  0  0  0  0  0  0
   -9.4801  -17.9506   28.4286 N   0  0  0  0  0  0  0  0  0  0  0  0
   -8.7889  -16.5976   27.1883 C   0  0  0  0  0  0  0  0  0  0  0  0
   -3.0284   -9.3362   26.5701 C   0  0  0  0  0  0  0  0  0  0  0  0
   -1.4649   -8.6192   25.6491 C   0  0  0  0  0  0  0  0  0  0  0  0
   -1.9299   -6.5533   27.1033 H   0  0  0  0  0  0  0  0  0  0  0  0
   -1.8081   -5.5445   25.5587 H   0  0  0  0  0  0  0  0  0  0  0  0
   -0.6291   -5.6448   26.8729 H   0  0  0  0  0  0  0  0  0  0  0  0
    0.4611   -6.6697   24.2419 H   0  0  0  0  0  0  0  0  0  0  0  0
    1.7676   -8.6546   25.6455 H   0  0  0  0  0  0  0  0  0  0  0  0
   -0.4670  -12.7862   24.8456 H   0  0  0  0  0  0  0  0  0  0  0  0
   -1.7016  -12.4112   27.6821 H   0  0  0  0  0  0  0  0  0  0  0  0
   -5.7308  -14.5378   28.2488 H   0  0  0  0  0  0  0  0  0  0  0  0
   -7.0768  -18.0981   26.7070 H   0  0  0  0  0  0  0  0  0  0  0  0
  -10.3086  -20.0383   28.6990 H   0  0  0  0  0  0  0  0  0  0  0  0
   -9.5678  -16.4411   26.3554 H   0  0  0  0  0  0  0  0  0  0  0  0
   -3.2294   -8.5990   27.3627 H   0  0  0  0  0  0  0  0  0  0  0  0
  1  2  1  0
  2  3  1  0
  3  4  2  0
  4  5  1  0
  5  6  2  0
  6  7  1  0
  7  8  2  0
  8  9  1  0
  9 10  2  0
  9 11  2  0
  9 12  1  0
 12 13  1  0
 13 14  2  0
 14 15  1  0
 15 16  2  0
 16 17  1  0
 17 18  2  0
  8 19  1  0
 19 20  2  0
 20  2  1  0
 20  5  1  0
 18 13  1  0
  1 21  1  0
  1 22  1  0
  1 23  1  0
  3 24  1  0
  4 25  1  0
  6 26  1  0
  7 27  1  0
 12 28  1  0
 14 29  1  0
 16 30  1  0
 18 31  1  0
 19 32  1  0
M  END
>  <Energy>  (1356) 
1871.7789968041675

>  <compound_id>  (1356) 
75284

>  <target_id>  (1356) 
1

>  <reference_id>  (1356) 
54

>  <inspiration_ids>  (1356) 
[40, 54]

>  <energy_score>  (1356) 
1839.6013988124532

>  <distance_score>  (1356) 
6.765748380363911

>  <path>  (1356) 
/opt/xchem-fragalysis-2/maxwin/BulkDock/SCRATCH/511017/C75284-P54/C75284-P54.minimised.mol

>  <scratch_subdir>  (1356) 
/opt/xchem-fragalysis-2/maxwin/BulkDock/SCRATCH/511017/C75284-P54

>  <fragmenstein_runtime>  (1356) 
7.949314594268799

>  <fragmenstein_outcome>  (1356) 
too moved

>  <fragmenstein_mode>  (1356) 
expansion

>  <fragmenstein_error>  (1356) 


$$$$
C75245-P40
     RDKit          3D

 42 44  0  0  0  0  0  0  0  0999 V2000
    0.6824   -7.7379   28.8598 C   0  0  0  0  0  0  0  0  0  0  0  0
   -0.0968   -8.6916   29.5991 N   0  0  0  0  0  0  0  0  0  0  0  0
   -0.6134   -9.9044   29.2494 C   0  0  0  0  0  0  0  0  0  0  0  0
   -1.4160  -10.6959   30.0910 C   0  0  0  0  0  0  0  0  0  0  0  0
   -2.5534  -12.1856   29.3706 C   0  0  0  0  0  0  0  0  0  0  0  0
   -2.7311  -14.2971   29.4765 C   0  0  0  0  0  0  0  0  0  0  0  0
   -3.9992  -15.5601   30.1651 O   0  0  0  0  0  0  0  0  0  0  0  0
   -5.5010  -15.8850   29.9485 C   0  0  0  0  0  0  0  0  0  0  0  0
   -6.1848  -15.0280   30.5330 O   0  0  0  0  0  0  0  0  0  0  0  0
   -6.4660  -17.3412   28.7650 C   0  0  0  0  0  0  0  0  0  0  0  0
   -8.2968  -18.3199   28.3642 C   0  0  0  0  0  0  0  0  0  0  0  0
   -9.3759  -19.9889   28.3041 C   0  0  0  0  0  0  0  0  0  0  0  0
  -10.0658  -21.1431   27.7360 C   0  0  0  0  0  0  0  0  0  0  0  0
  -10.3779  -22.4952   28.0515 N   0  0  0  0  0  0  0  0  0  0  0  0
  -11.4820  -22.5226   28.6742 C   0  0  0  0  0  0  0  0  0  0  0  0
  -11.6514  -21.5958   29.5501 N   0  0  0  0  0  0  0  0  0  0  0  0
  -10.6628  -20.5898   29.4362 C   0  0  0  0  0  0  0  0  0  0  0  0
   -1.3313   -9.3972   31.2801 C   0  0  0  0  0  0  0  0  0  0  0  0
   -1.9651   -8.8885   32.4454 C   0  0  0  0  0  0  0  0  0  0  0  0
   -1.5471   -7.7762   33.2329 C   0  0  0  0  0  0  0  0  0  0  0  0
   -0.6268   -6.8904   32.7780 C   0  0  0  0  0  0  0  0  0  0  0  0
   -0.1446   -7.1371   31.5266 C   0  0  0  0  0  0  0  0  0  0  0  0
   -0.4910   -8.3429   30.8403 C   0  0  0  0  0  0  0  0  0  0  0  0
    0.1003   -6.8464   28.7365 H   0  0  0  0  0  0  0  0  0  0  0  0
    1.5318   -7.3816   29.4273 H   0  0  0  0  0  0  0  0  0  0  0  0
    1.0927   -8.1520   27.9609 H   0  0  0  0  0  0  0  0  0  0  0  0
   -0.5754  -10.2013   28.2671 H   0  0  0  0  0  0  0  0  0  0  0  0
   -2.5427  -11.9345   28.3041 H   0  0  0  0  0  0  0  0  0  0  0  0
   -3.5500  -11.8103   29.4932 H   0  0  0  0  0  0  0  0  0  0  0  0
   -2.3843  -14.7887   28.5572 H   0  0  0  0  0  0  0  0  0  0  0  0
   -3.6184  -13.8266   29.4907 H   0  0  0  0  0  0  0  0  0  0  0  0
   -6.9931  -16.9851   27.8881 H   0  0  0  0  0  0  0  0  0  0  0  0
   -6.9078  -16.2948   28.6335 H   0  0  0  0  0  0  0  0  0  0  0  0
   -8.7501  -17.7506   27.5400 H   0  0  0  0  0  0  0  0  0  0  0  0
   -8.7673  -17.8217   29.0960 H   0  0  0  0  0  0  0  0  0  0  0  0
  -10.7515  -21.0610   26.8625 H   0  0  0  0  0  0  0  0  0  0  0  0
  -12.1364  -23.3305   28.4616 H   0  0  0  0  0  0  0  0  0  0  0  0
  -10.9098  -20.1279   30.3642 H   0  0  0  0  0  0  0  0  0  0  0  0
   -2.7882   -9.3464   32.9283 H   0  0  0  0  0  0  0  0  0  0  0  0
   -1.9972   -7.6247   34.2121 H   0  0  0  0  0  0  0  0  0  0  0  0
   -0.3419   -6.0156   33.3505 H   0  0  0  0  0  0  0  0  0  0  0  0
    0.5278   -6.4028   31.0923 H   0  0  0  0  0  0  0  0  0  0  0  0
  1  2  1  0
  2  3  1  0
  3  4  2  0
  4  5  1  0
  5  6  1  0
  6  7  1  0
  7  8  1  0
  8  9  2  0
  8 10  1  0
 10 11  1  0
 11 12  1  0
 12 13  2  0
 13 14  1  0
 14 15  2  0
 15 16  1  0
 16 17  2  0
  4 18  1  0
 18 19  2  0
 19 20  1  0
 20 21  2  0
 21 22  1  0
 22 23  2  0
 23  2  1  0
 17 12  1  0
 23 18  1  0
  1 24  1  0
  1 25  1  0
  1 26  1  0
  3 27  1  0
  5 28  1  0
  5 29  1  0
  6 30  1  0
  6 31  1  0
 10 32  1  0
 10 33  1  0
 11 34  1  0
 11 35  1  0
 13 36  1  0
 15 37  1  0
 17 38  1  0
 19 39  1  0
 20 40  1  0
 21 41  1  0
 22 42  1  0
M  END
>  <Energy>  (1357) 
1061.1166334578068

>  <compound_id>  (1357) 
75245

>  <target_id>  (1357) 
1

>  <reference_id>  (1357) 
40

>  <inspiration_ids>  (1357) 
[40, 54]

>  <energy_score>  (1357) 
1029.179962010522

>  <distance_score>  (1357) 
3.940325449837508

>  <path>  (1357) 
/opt/xchem-fragalysis-2/maxwin/BulkDock/SCRATCH/511017/C75245-P40/C75245-P40.minimised.mol

>  <scratch_subdir>  (1357) 
/opt/xchem-fragalysis-2/maxwin/BulkDock/SCRATCH/511017/C75245-P40

>  <fragmenstein_runtime>  (1357) 
16.696909427642822

>  <fragmenstein_outcome>  (1357) 
too moved

>  <fragmenstein_mode>  (1357) 
expansion

>  <fragmenstein_error>  (1357) 


$$$$
C75245-P54
     RDKit          3D

 42 44  0  0  0  0  0  0  0  0999 V2000
   -1.4176   -5.5784   25.3529 C   0  0  0  0  0  0  0  0  0  0  0  0
   -1.5522   -6.4663   26.5266 N   0  0  0  0  0  0  0  0  0  0  0  0
   -1.7898   -7.8861   26.4297 C   0  0  0  0  0  0  0  0  0  0  0  0
   -2.6865   -8.6648   27.4033 C   0  0  0  0  0  0  0  0  0  0  0  0
   -3.4715  -10.5480   27.2017 C   0  0  0  0  0  0  0  0  0  0  0  0
   -3.1029  -12.6801   27.2560 C   0  0  0  0  0  0  0  0  0  0  0  0
   -3.7215  -14.5444   26.4966 O   0  0  0  0  0  0  0  0  0  0  0  0
   -5.0842  -15.9655   26.6534 C   0  0  0  0  0  0  0  0  0  0  0  0
   -6.0684  -15.4923   27.4223 O   0  0  0  0  0  0  0  0  0  0  0  0
   -5.4955  -17.9765   26.1416 C   0  0  0  0  0  0  0  0  0  0  0  0
   -5.9129  -19.6216   27.2740 C   0  0  0  0  0  0  0  0  0  0  0  0
   -7.0152  -20.9057   27.9547 C   0  0  0  0  0  0  0  0  0  0  0  0
   -6.5805  -21.8736   28.8892 C   0  0  0  0  0  0  0  0  0  0  0  0
   -7.3843  -22.9044   29.4782 N   0  0  0  0  0  0  0  0  0  0  0  0
   -8.6574  -23.1294   29.1603 C   0  0  0  0  0  0  0  0  0  0  0  0
   -9.2888  -22.3035   28.3772 N   0  0  0  0  0  0  0  0  0  0  0  0
   -8.4888  -21.2313   27.9776 C   0  0  0  0  0  0  0  0  0  0  0  0
   -2.7773   -7.1001   28.3463 C   0  0  0  0  0  0  0  0  0  0  0  0
   -3.0024   -6.5748   29.6796 C   0  0  0  0  0  0  0  0  0  0  0  0
   -3.1060   -5.2384   30.1342 C   0  0  0  0  0  0  0  0  0  0  0  0
   -2.7315   -4.2253   29.3037 C   0  0  0  0  0  0  0  0  0  0  0  0
   -2.1761   -4.5757   28.0934 C   0  0  0  0  0  0  0  0  0  0  0  0
   -2.1406   -5.9398   27.6826 C   0  0  0  0  0  0  0  0  0  0  0  0
   -2.3996   -5.2163   25.0446 H   0  0  0  0  0  0  0  0  0  0  0  0
   -0.9193   -4.6489   25.6322 H   0  0  0  0  0  0  0  0  0  0  0  0
   -0.9393   -6.1169   24.5322 H   0  0  0  0  0  0  0  0  0  0  0  0
   -1.3803   -8.1744   25.4880 H   0  0  0  0  0  0  0  0  0  0  0  0
   -3.8339  -10.2296   26.2075 H   0  0  0  0  0  0  0  0  0  0  0  0
   -4.4726  -10.4080   27.6606 H   0  0  0  0  0  0  0  0  0  0  0  0
   -2.0991  -12.6833   26.7681 H   0  0  0  0  0  0  0  0  0  0  0  0
   -3.2980  -12.9067   28.3023 H   0  0  0  0  0  0  0  0  0  0  0  0
   -5.0080  -18.4007   25.2321 H   0  0  0  0  0  0  0  0  0  0  0  0
   -6.4627  -18.1006   25.7803 H   0  0  0  0  0  0  0  0  0  0  0  0
   -6.9474  -19.3020   27.0954 H   0  0  0  0  0  0  0  0  0  0  0  0
   -5.2830  -20.3631   26.7730 H   0  0  0  0  0  0  0  0  0  0  0  0
   -5.5466  -22.0416   29.1277 H   0  0  0  0  0  0  0  0  0  0  0  0
   -9.1636  -23.9834   29.5816 H   0  0  0  0  0  0  0  0  0  0  0  0
   -9.2196  -20.3827   28.0647 H   0  0  0  0  0  0  0  0  0  0  0  0
   -2.6436   -7.1702   30.5209 H   0  0  0  0  0  0  0  0  0  0  0  0
   -3.3134   -5.0382   31.1845 H   0  0  0  0  0  0  0  0  0  0  0  0
   -2.7232   -3.1909   29.6339 H   0  0  0  0  0  0  0  0  0  0  0  0
   -1.7129   -3.8006   27.4871 H   0  0  0  0  0  0  0  0  0  0  0  0
  1  2  1  0
  2  3  1  0
  3  4  2  0
  4  5  1  0
  5  6  1  0
  6  7  1  0
  7  8  1  0
  8  9  2  0
  8 10  1  0
 10 11  1  0
 11 12  1  0
 12 13  2  0
 13 14  1  0
 14 15  2  0
 15 16  1  0
 16 17  2  0
  4 18  1  0
 18 19  2  0
 19 20  1  0
 20 21  2  0
 21 22  1  0
 22 23  2  0
 23  2  1  0
 17 12  1  0
 23 18  1  0
  1 24  1  0
  1 25  1  0
  1 26  1  0
  3 27  1  0
  5 28  1  0
  5 29  1  0
  6 30  1  0
  6 31  1  0
 10 32  1  0
 10 33  1  0
 11 34  1  0
 11 35  1  0
 13 36  1  0
 15 37  1  0
 17 38  1  0
 19 39  1  0
 20 40  1  0
 21 41  1  0
 22 42  1  0
M  END
>  <Energy>  (1358) 
1022.880920206528

>  <compound_id>  (1358) 
75245

>  <target_id>  (1358) 
1

>  <reference_id>  (1358) 
54

>  <inspiration_ids>  (1358) 
[40, 54]

>  <energy_score>  (1358) 
990.9442487592592

>  <distance_score>  (1358) 
4.001702525814532

>  <path>  (1358) 
/opt/xchem-fragalysis-2/maxwin/BulkDock/SCRATCH/511017/C75245-P54/C75245-P54.minimised.mol

>  <scratch_subdir>  (1358) 
/opt/xchem-fragalysis-2/maxwin/BulkDock/SCRATCH/511017/C75245-P54

>  <fragmenstein_runtime>  (1358) 
10.009317398071289

>  <fragmenstein_outcome>  (1358) 
too moved

>  <fragmenstein_mode>  (1358) 
expansion

>  <fragmenstein_error>  (1358) 


$$$$
C75285-P40
     RDKit          3D

 34 36  0  0  0  0  0  0  0  0999 V2000
   -2.0654   -8.0333   31.5719 C   0  0  0  0  0  0  0  0  0  0  0  0
   -3.1375   -8.7273   32.2808 N   0  0  0  0  0  0  0  0  0  0  0  0
   -2.9160   -8.7199   33.7021 C   0  0  0  0  0  0  0  0  0  0  0  0
   -4.0575   -8.8879   34.4516 C   0  0  0  0  0  0  0  0  0  0  0  0
   -5.1163   -9.1286   33.4768 C   0  0  0  0  0  0  0  0  0  0  0  0
   -6.0341  -10.3170   33.5866 C   0  0  0  0  0  0  0  0  0  0  0  0
   -6.5254  -11.9252   32.7040 C   0  0  0  0  0  0  0  0  0  0  0  0
   -6.1636  -12.6444   31.4979 C   0  0  0  0  0  0  0  0  0  0  0  0
   -6.8306  -14.4342   30.7045 C   0  0  0  0  0  0  0  0  0  0  0  0
   -7.9315  -14.5945   31.1177 O   0  0  0  0  0  0  0  0  0  0  0  0
   -6.3892  -15.9546   29.3223 N   0  0  0  0  0  0  0  0  0  0  0  0
   -7.6301  -17.5803   28.4532 C   0  0  0  0  0  0  0  0  0  0  0  0
   -8.8000  -19.4017   28.4198 C   0  0  0  0  0  0  0  0  0  0  0  0
  -10.3066  -20.3488   29.2951 C   0  0  0  0  0  0  0  0  0  0  0  0
  -11.3154  -21.4065   29.6266 N   0  0  0  0  0  0  0  0  0  0  0  0
  -11.3223  -22.3061   28.7408 C   0  0  0  0  0  0  0  0  0  0  0  0
  -10.4435  -22.1253   27.8414 N   0  0  0  0  0  0  0  0  0  0  0  0
   -9.5184  -20.7253   27.7096 C   0  0  0  0  0  0  0  0  0  0  0  0
   -5.5969  -10.8798   31.3097 C   0  0  0  0  0  0  0  0  0  0  0  0
   -4.6861   -9.1633   31.8005 C   0  0  0  0  0  0  0  0  0  0  0  0
   -1.2938   -8.7702   31.3301 H   0  0  0  0  0  0  0  0  0  0  0  0
   -2.4139   -7.4878   30.7059 H   0  0  0  0  0  0  0  0  0  0  0  0
   -1.6127   -7.2843   32.2319 H   0  0  0  0  0  0  0  0  0  0  0  0
   -1.9369   -8.4065   34.0531 H   0  0  0  0  0  0  0  0  0  0  0  0
   -4.1009   -8.9813   35.5293 H   0  0  0  0  0  0  0  0  0  0  0  0
   -6.6916  -10.0854   34.4954 H   0  0  0  0  0  0  0  0  0  0  0  0
   -7.4672  -12.3218   33.1529 H   0  0  0  0  0  0  0  0  0  0  0  0
   -5.4520  -15.8597   29.0581 H   0  0  0  0  0  0  0  0  0  0  0  0
   -8.2367  -16.7562   27.9222 H   0  0  0  0  0  0  0  0  0  0  0  0
   -8.5836  -17.5568   28.9213 H   0  0  0  0  0  0  0  0  0  0  0  0
  -11.0031  -19.6799   29.8012 H   0  0  0  0  0  0  0  0  0  0  0  0
  -11.9991  -23.1133   28.6373 H   0  0  0  0  0  0  0  0  0  0  0  0
  -10.0569  -20.6252   26.7862 H   0  0  0  0  0  0  0  0  0  0  0  0
   -6.3202  -10.5344   30.4723 H   0  0  0  0  0  0  0  0  0  0  0  0
  1  2  1  0
  2  3  1  0
  3  4  2  0
  4  5  1  0
  5  6  2  0
  6  7  1  0
  7  8  2  0
  8  9  1  0
  9 10  2  0
  9 11  1  0
 11 12  1  0
 12 13  1  0
 13 14  2  0
 14 15  1  0
 15 16  2  0
 16 17  1  0
 17 18  2  0
  8 19  1  0
 19 20  2  0
 20  2  1  0
 20  5  1  0
 18 13  1  0
  1 21  1  0
  1 22  1  0
  1 23  1  0
  3 24  1  0
  4 25  1  0
  6 26  1  0
  7 27  1  0
 11 28  1  0
 12 29  1  0
 12 30  1  0
 14 31  1  0
 16 32  1  0
 18 33  1  0
 19 34  1  0
M  END
>  <Energy>  (1359) 
1641.522980033712

>  <compound_id>  (1359) 
75285

>  <target_id>  (1359) 
1

>  <reference_id>  (1359) 
40

>  <inspiration_ids>  (1359) 
[40, 54]

>  <energy_score>  (1359) 
1624.9211125048462

>  <distance_score>  (1359) 
7.071671337730064

>  <path>  (1359) 
/opt/xchem-fragalysis-2/maxwin/BulkDock/SCRATCH/511017/C75285-P40/C75285-P40.minimised.mol

>  <scratch_subdir>  (1359) 
/opt/xchem-fragalysis-2/maxwin/BulkDock/SCRATCH/511017/C75285-P40

>  <fragmenstein_runtime>  (1359) 
14.826696872711182

>  <fragmenstein_outcome>  (1359) 
too moved

>  <fragmenstein_mode>  (1359) 
expansion

>  <fragmenstein_error>  (1359) 


$$$$
C75285-P54
     RDKit          3D

 34 36  0  0  0  0  0  0  0  0999 V2000
   -5.1905   -5.9132   29.0261 C   0  0  0  0  0  0  0  0  0  0  0  0
   -3.7892   -6.3325   29.0089 N   0  0  0  0  0  0  0  0  0  0  0  0
   -2.9455   -5.5449   29.7578 C   0  0  0  0  0  0  0  0  0  0  0  0
   -2.4891   -6.3370   30.7895 C   0  0  0  0  0  0  0  0  0  0  0  0
   -2.2562   -7.6319   30.2908 C   0  0  0  0  0  0  0  0  0  0  0  0
   -1.2564   -9.3343   30.3655 C   0  0  0  0  0  0  0  0  0  0  0  0
   -1.5277  -10.2582   28.7343 C   0  0  0  0  0  0  0  0  0  0  0  0
   -3.1540  -10.8610   27.6365 C   0  0  0  0  0  0  0  0  0  0  0  0
   -4.0635  -12.8170   28.1392 C   0  0  0  0  0  0  0  0  0  0  0  0
   -3.2884  -13.4701   28.7564 O   0  0  0  0  0  0  0  0  0  0  0  0
   -5.8988  -13.6202   27.4840 N   0  0  0  0  0  0  0  0  0  0  0  0
   -6.7934  -15.6088   27.4847 C   0  0  0  0  0  0  0  0  0  0  0  0
   -8.4370  -17.1722   27.4987 C   0  0  0  0  0  0  0  0  0  0  0  0
   -9.0586  -18.9816   27.3092 C   0  0  0  0  0  0  0  0  0  0  0  0
   -9.8038  -20.4095   27.9523 N   0  0  0  0  0  0  0  0  0  0  0  0
  -10.6765  -20.4067   28.8730 C   0  0  0  0  0  0  0  0  0  0  0  0
  -10.6980  -19.2565   29.3772 N   0  0  0  0  0  0  0  0  0  0  0  0
   -9.6510  -18.1287   28.7062 C   0  0  0  0  0  0  0  0  0  0  0  0
   -3.6294   -9.1615   27.7422 C   0  0  0  0  0  0  0  0  0  0  0  0
   -3.1617   -7.5960   28.6941 C   0  0  0  0  0  0  0  0  0  0  0  0
   -5.8295   -6.7555   29.2989 H   0  0  0  0  0  0  0  0  0  0  0  0
   -5.3317   -5.1535   29.8039 H   0  0  0  0  0  0  0  0  0  0  0  0
   -5.4394   -5.4549   28.0675 H   0  0  0  0  0  0  0  0  0  0  0  0
   -3.0845   -4.4693   29.7622 H   0  0  0  0  0  0  0  0  0  0  0  0
   -2.1825   -5.8706   31.6893 H   0  0  0  0  0  0  0  0  0  0  0  0
   -0.2870   -9.3387   30.8707 H   0  0  0  0  0  0  0  0  0  0  0  0
   -0.8198  -11.1465   28.8895 H   0  0  0  0  0  0  0  0  0  0  0  0
   -6.4630  -12.8885   27.0464 H   0  0  0  0  0  0  0  0  0  0  0  0
   -6.5174  -15.7603   28.6372 H   0  0  0  0  0  0  0  0  0  0  0  0
   -7.6194  -15.1309   26.8428 H   0  0  0  0  0  0  0  0  0  0  0  0
   -9.7394  -19.2184   26.4910 H   0  0  0  0  0  0  0  0  0  0  0  0
  -11.2396  -21.2525   29.1998 H   0  0  0  0  0  0  0  0  0  0  0  0
   -9.9780  -17.9424   29.7462 H   0  0  0  0  0  0  0  0  0  0  0  0
   -4.7369   -9.2823   27.8155 H   0  0  0  0  0  0  0  0  0  0  0  0
  1  2  1  0
  2  3  1  0
  3  4  2  0
  4  5  1  0
  5  6  2  0
  6  7  1  0
  7  8  2  0
  8  9  1  0
  9 10  2  0
  9 11  1  0
 11 12  1  0
 12 13  1  0
 13 14  2  0
 14 15  1  0
 15 16  2  0
 16 17  1  0
 17 18  2  0
  8 19  1  0
 19 20  2  0
 20  2  1  0
 20  5  1  0
 18 13  1  0
  1 21  1  0
  1 22  1  0
  1 23  1  0
  3 24  1  0
  4 25  1  0
  6 26  1  0
  7 27  1  0
 11 28  1  0
 12 29  1  0
 12 30  1  0
 14 31  1  0
 16 32  1  0
 18 33  1  0
 19 34  1  0
M  END
>  <Energy>  (1360) 
1944.1312940552452

>  <compound_id>  (1360) 
75285

>  <target_id>  (1360) 
1

>  <reference_id>  (1360) 
54

>  <inspiration_ids>  (1360) 
[40, 54]

>  <energy_score>  (1360) 
1927.5294265264147

>  <distance_score>  (1360) 
5.661528176777469

>  <path>  (1360) 
/opt/xchem-fragalysis-2/maxwin/BulkDock/SCRATCH/511017/C75285-P54/C75285-P54.minimised.mol

>  <scratch_subdir>  (1360) 
/opt/xchem-fragalysis-2/maxwin/BulkDock/SCRATCH/511017/C75285-P54

>  <fragmenstein_runtime>  (1360) 
10.104525566101074

>  <fragmenstein_outcome>  (1360) 
too moved

>  <fragmenstein_mode>  (1360) 
expansion

>  <fragmenstein_error>  (1360) 


$$$$
C75287-P40
     RDKit          3D

 37 39  0  0  0  0  0  0  0  0999 V2000
   -0.2571   -5.7649   30.6145 C   0  0  0  0  0  0  0  0  0  0  0  0
   -0.3473   -7.0449   29.9370 N   0  0  0  0  0  0  0  0  0  0  0  0
    0.5325   -7.4212   29.0186 C   0  0  0  0  0  0  0  0  0  0  0  0
    0.3197   -8.7694   28.8540 C   0  0  0  0  0  0  0  0  0  0  0  0
   -0.8447   -9.4412   29.4218 C   0  0  0  0  0  0  0  0  0  0  0  0
   -1.6297  -10.9914   29.7020 C   0  0  0  0  0  0  0  0  0  0  0  0
   -2.7792  -12.5712   29.0976 C   0  0  0  0  0  0  0  0  0  0  0  0
   -3.8877  -12.1608   28.8330 O   0  0  0  0  0  0  0  0  0  0  0  0
   -2.5348  -14.6003   28.9602 N   0  0  0  0  0  0  0  0  0  0  0  0
   -3.8244  -16.1809   28.2970 C   0  0  0  0  0  0  0  0  0  0  0  0
   -4.7507  -18.1166   27.7631 C   0  0  0  0  0  0  0  0  0  0  0  0
   -5.1669  -19.8112   26.5575 C   0  0  0  0  0  0  0  0  0  0  0  0
   -4.0566  -20.2218   25.5678 C   0  0  0  0  0  0  0  0  0  0  0  0
   -3.7235  -21.2499   24.7115 N   0  0  0  0  0  0  0  0  0  0  0  0
   -4.3995  -22.3442   24.9004 C   0  0  0  0  0  0  0  0  0  0  0  0
   -5.1672  -22.5160   25.9681 N   0  0  0  0  0  0  0  0  0  0  0  0
   -5.4173  -21.4330   26.8431 C   0  0  0  0  0  0  0  0  0  0  0  0
   -1.0387  -10.6938   30.8652 C   0  0  0  0  0  0  0  0  0  0  0  0
   -1.1899   -9.4852   31.8116 C   0  0  0  0  0  0  0  0  0  0  0  0
   -1.6766   -8.2715   31.5245 C   0  0  0  0  0  0  0  0  0  0  0  0
   -0.9973   -8.1837   30.3540 C   0  0  0  0  0  0  0  0  0  0  0  0
   -1.1129   -5.6132   31.2711 H   0  0  0  0  0  0  0  0  0  0  0  0
    0.6656   -5.7554   31.2019 H   0  0  0  0  0  0  0  0  0  0  0  0
   -0.2309   -4.9765   29.8571 H   0  0  0  0  0  0  0  0  0  0  0  0
    1.3013   -6.7608   28.6314 H   0  0  0  0  0  0  0  0  0  0  0  0
    1.1132   -9.1179   28.2630 H   0  0  0  0  0  0  0  0  0  0  0  0
   -1.6173  -14.8347   29.2783 H   0  0  0  0  0  0  0  0  0  0  0  0
   -2.8974  -16.6913   27.9340 H   0  0  0  0  0  0  0  0  0  0  0  0
   -4.4421  -16.2538   29.2457 H   0  0  0  0  0  0  0  0  0  0  0  0
   -5.5283  -17.8655   27.1879 H   0  0  0  0  0  0  0  0  0  0  0  0
   -5.7665  -18.0814   28.3175 H   0  0  0  0  0  0  0  0  0  0  0  0
   -3.0810  -19.7334   25.7210 H   0  0  0  0  0  0  0  0  0  0  0  0
   -4.2744  -23.1512   24.1939 H   0  0  0  0  0  0  0  0  0  0  0  0
   -6.0542  -21.7768   27.6574 H   0  0  0  0  0  0  0  0  0  0  0  0
   -0.4573  -11.5506   31.0570 H   0  0  0  0  0  0  0  0  0  0  0  0
   -0.6618   -9.4176   32.7550 H   0  0  0  0  0  0  0  0  0  0  0  0
   -1.7509   -7.4784   32.2555 H   0  0  0  0  0  0  0  0  0  0  0  0
  1  2  1  0
  2  3  1  0
  3  4  2  0
  4  5  1  0
  5  6  2  0
  6  7  1  0
  7  8  2  0
  7  9  1  0
  9 10  1  0
 10 11  1  0
 11 12  1  0
 12 13  2  0
 13 14  1  0
 14 15  2  0
 15 16  1  0
 16 17  2  0
  6 18  1  0
 18 19  2  0
 19 20  1  0
 20 21  2  0
 21  2  1  0
 21  5  1  0
 17 12  1  0
  1 22  1  0
  1 23  1  0
  1 24  1  0
  3 25  1  0
  4 26  1  0
  9 27  1  0
 10 28  1  0
 10 29  1  0
 11 30  1  0
 11 31  1  0
 13 32  1  0
 15 33  1  0
 17 34  1  0
 18 35  1  0
 19 36  1  0
 20 37  1  0
M  END
>  <Energy>  (1361) 
1157.5862015868893

>  <compound_id>  (1361) 
75287

>  <target_id>  (1361) 
1

>  <reference_id>  (1361) 
40

>  <inspiration_ids>  (1361) 
[40, 54]

>  <energy_score>  (1361) 
1116.9678850885953

>  <distance_score>  (1361) 
6.448672791735747

>  <path>  (1361) 
/opt/xchem-fragalysis-2/maxwin/BulkDock/SCRATCH/511017/C75287-P40/C75287-P40.minimised.mol

>  <scratch_subdir>  (1361) 
/opt/xchem-fragalysis-2/maxwin/BulkDock/SCRATCH/511017/C75287-P40

>  <fragmenstein_runtime>  (1361) 
14.426370859146118

>  <fragmenstein_outcome>  (1361) 
too moved

>  <fragmenstein_mode>  (1361) 
expansion

>  <fragmenstein_error>  (1361) 


$$$$
C75287-P54
     RDKit          3D

 37 39  0  0  0  0  0  0  0  0999 V2000
   -2.8068   -4.7216   28.8866 C   0  0  0  0  0  0  0  0  0  0  0  0
   -2.5102   -6.0099   28.2920 N   0  0  0  0  0  0  0  0  0  0  0  0
   -1.7338   -6.1377   27.0835 C   0  0  0  0  0  0  0  0  0  0  0  0
   -1.5404   -7.5203   26.7551 C   0  0  0  0  0  0  0  0  0  0  0  0
   -1.9692   -8.5128   27.9364 C   0  0  0  0  0  0  0  0  0  0  0  0
   -1.1614  -10.0952   28.6033 C   0  0  0  0  0  0  0  0  0  0  0  0
   -1.5376  -12.0696   28.0976 C   0  0  0  0  0  0  0  0  0  0  0  0
   -1.3641  -12.7329   29.0584 O   0  0  0  0  0  0  0  0  0  0  0  0
   -2.2800  -12.9530   26.5330 N   0  0  0  0  0  0  0  0  0  0  0  0
   -3.0187  -14.8804   26.2425 C   0  0  0  0  0  0  0  0  0  0  0  0
   -4.6291  -16.3471   26.4530 C   0  0  0  0  0  0  0  0  0  0  0  0
   -5.3650  -18.1956   25.8583 C   0  0  0  0  0  0  0  0  0  0  0  0
   -4.6926  -18.8669   24.6603 C   0  0  0  0  0  0  0  0  0  0  0  0
   -4.5128  -20.2613   24.3779 N   0  0  0  0  0  0  0  0  0  0  0  0
   -4.7792  -21.1557   25.3723 C   0  0  0  0  0  0  0  0  0  0  0  0
   -5.1120  -20.8267   26.6452 N   0  0  0  0  0  0  0  0  0  0  0  0
   -5.4443  -19.4846   26.8813 C   0  0  0  0  0  0  0  0  0  0  0  0
   -0.6663  -10.0225   29.9659 C   0  0  0  0  0  0  0  0  0  0  0  0
   -1.1344   -8.9611   30.9549 C   0  0  0  0  0  0  0  0  0  0  0  0
   -2.1651   -7.4997   30.6647 C   0  0  0  0  0  0  0  0  0  0  0  0
   -2.5146   -7.2287   29.0097 C   0  0  0  0  0  0  0  0  0  0  0  0
   -3.5567   -4.8595   29.6692 H   0  0  0  0  0  0  0  0  0  0  0  0
   -1.8834   -4.3134   29.3036 H   0  0  0  0  0  0  0  0  0  0  0  0
   -3.2034   -4.0665   28.1073 H   0  0  0  0  0  0  0  0  0  0  0  0
   -1.4203   -5.2382   26.5628 H   0  0  0  0  0  0  0  0  0  0  0  0
   -0.9164   -7.7959   25.9133 H   0  0  0  0  0  0  0  0  0  0  0  0
   -2.2897  -12.3117   25.7826 H   0  0  0  0  0  0  0  0  0  0  0  0
   -3.8550  -14.2888   26.4916 H   0  0  0  0  0  0  0  0  0  0  0  0
   -2.7130  -15.0219   25.2128 H   0  0  0  0  0  0  0  0  0  0  0  0
   -5.3809  -16.0985   25.8671 H   0  0  0  0  0  0  0  0  0  0  0  0
   -5.4058  -15.9065   27.1282 H   0  0  0  0  0  0  0  0  0  0  0  0
   -4.4065  -18.3682   23.7510 H   0  0  0  0  0  0  0  0  0  0  0  0
   -4.6591  -22.1908   25.0871 H   0  0  0  0  0  0  0  0  0  0  0  0
   -6.3660  -19.5699   27.4602 H   0  0  0  0  0  0  0  0  0  0  0  0
    0.4066  -10.2251   29.9966 H   0  0  0  0  0  0  0  0  0  0  0  0
   -0.2123   -8.6039   31.5201 H   0  0  0  0  0  0  0  0  0  0  0  0
   -2.2458   -6.6694   31.3512 H   0  0  0  0  0  0  0  0  0  0  0  0
  1  2  1  0
  2  3  1  0
  3  4  2  0
  4  5  1  0
  5  6  2  0
  6  7  1  0
  7  8  2  0
  7  9  1  0
  9 10  1  0
 10 11  1  0
 11 12  1  0
 12 13  2  0
 13 14  1  0
 14 15  2  0
 15 16  1  0
 16 17  2  0
  6 18  1  0
 18 19  2  0
 19 20  1  0
 20 21  2  0
 21  2  1  0
 21  5  1  0
 17 12  1  0
  1 22  1  0
  1 23  1  0
  1 24  1  0
  3 25  1  0
  4 26  1  0
  9 27  1  0
 10 28  1  0
 10 29  1  0
 11 30  1  0
 11 31  1  0
 13 32  1  0
 15 33  1  0
 17 34  1  0
 18 35  1  0
 19 36  1  0
 20 37  1  0
M  END
>  <Energy>  (1362) 
978.52777745067101

>  <compound_id>  (1362) 
75287

>  <target_id>  (1362) 
1

>  <reference_id>  (1362) 
54

>  <inspiration_ids>  (1362) 
[40, 54]

>  <energy_score>  (1362) 
937.9094609523772

>  <distance_score>  (1362) 
6.536629681014043

>  <path>  (1362) 
/opt/xchem-fragalysis-2/maxwin/BulkDock/SCRATCH/511017/C75287-P54/C75287-P54.minimised.mol

>  <scratch_subdir>  (1362) 
/opt/xchem-fragalysis-2/maxwin/BulkDock/SCRATCH/511017/C75287-P54

>  <fragmenstein_runtime>  (1362) 
20.96427321434021

>  <fragmenstein_outcome>  (1362) 
too moved

>  <fragmenstein_mode>  (1362) 
expansion

>  <fragmenstein_error>  (1362) 


$$$$
C24607-P56
     RDKit          3D

 49 51  0  0  0  0  0  0  0  0999 V2000
   -2.4179   -7.6493   31.6258 C   0  0  0  0  0  0  0  0  0  0  0  0
   -1.2411   -8.3891   31.3002 N   0  0  0  0  0  0  0  0  0  0  0  0
   -0.6602   -7.8731   30.1186 C   0  0  0  0  0  0  0  0  0  0  0  0
   -0.8262   -8.1755   28.9723 O   0  0  0  0  0  0  0  0  0  0  0  0
    0.2108   -6.6944   30.4483 C   0  0  0  0  0  0  0  0  0  0  0  0
    0.1909   -5.6261   29.5446 C   0  0  0  0  0  0  0  0  0  0  0  0
    0.7037   -4.3863   29.9120 C   0  0  0  0  0  0  0  0  0  0  0  0
    1.1823   -4.2376   31.2001 C   0  0  0  0  0  0  0  0  0  0  0  0
    1.1682   -5.2212   32.1198 N   0  0  0  0  0  0  0  0  0  0  0  0
    0.6808   -6.4236   31.7237 C   0  0  0  0  0  0  0  0  0  0  0  0
   -2.2922   -9.7067   31.5457 C   0  0  0  0  0  0  0  0  0  0  0  0
   -2.8025  -11.0680   30.2610 C   0  0  0  0  0  0  0  0  0  0  0  0
   -2.4839  -11.3045   28.4305 N   0  0  0  0  0  0  0  0  0  0  0  0
   -3.5421  -12.0800   26.9838 C   0  0  0  0  0  0  0  0  0  0  0  0
   -4.5924  -12.3316   27.3593 O   0  0  0  0  0  0  0  0  0  0  0  0
   -3.3010  -12.8373   24.9746 C   0  0  0  0  0  0  0  0  0  0  0  0
   -3.8013  -14.7815   23.7585 C   0  0  0  0  0  0  0  0  0  0  0  0
   -4.2580  -16.1019   22.1029 C   0  0  0  0  0  0  0  0  0  0  0  0
   -5.6464  -17.4512   21.7089 C   0  0  0  0  0  0  0  0  0  0  0  0
   -6.1620  -17.4227   23.2159 C   0  0  0  0  0  0  0  0  0  0  0  0
   -5.2919  -15.7375   23.9361 O   0  0  0  0  0  0  0  0  0  0  0  0
   -1.9448   -9.9372   33.1698 C   0  0  0  0  0  0  0  0  0  0  0  0
   -1.4373   -8.8055   34.1151 C   0  0  0  0  0  0  0  0  0  0  0  0
   -2.8033   -9.3326   34.3117 C   0  0  0  0  0  0  0  0  0  0  0  0
   -2.9759   -7.4637   30.7368 H   0  0  0  0  0  0  0  0  0  0  0  0
   -2.9914   -7.8557   32.4985 H   0  0  0  0  0  0  0  0  0  0  0  0
   -2.0282   -6.6526   31.8797 H   0  0  0  0  0  0  0  0  0  0  0  0
   -0.2548   -5.7518   28.5595 H   0  0  0  0  0  0  0  0  0  0  0  0
    0.7075   -3.5537   29.2163 H   0  0  0  0  0  0  0  0  0  0  0  0
    1.5890   -3.2901   31.5424 H   0  0  0  0  0  0  0  0  0  0  0  0
    0.6247   -7.1637   32.5118 H   0  0  0  0  0  0  0  0  0  0  0  0
   -3.3456   -9.4243   31.7151 H   0  0  0  0  0  0  0  0  0  0  0  0
   -3.6781  -11.6857   30.5059 H   0  0  0  0  0  0  0  0  0  0  0  0
   -2.0226  -11.6760   30.6457 H   0  0  0  0  0  0  0  0  0  0  0  0
   -1.6140  -11.0090   28.0574 H   0  0  0  0  0  0  0  0  0  0  0  0
   -2.2786  -13.0923   25.3562 H   0  0  0  0  0  0  0  0  0  0  0  0
   -3.8507  -12.0580   24.4760 H   0  0  0  0  0  0  0  0  0  0  0  0
   -3.0986  -15.4566   24.3012 H   0  0  0  0  0  0  0  0  0  0  0  0
   -3.6345  -16.8366   22.2414 H   0  0  0  0  0  0  0  0  0  0  0  0
   -3.6849  -16.0961   21.1172 H   0  0  0  0  0  0  0  0  0  0  0  0
   -6.3452  -17.0489   20.9390 H   0  0  0  0  0  0  0  0  0  0  0  0
   -5.6444  -18.4548   21.2675 H   0  0  0  0  0  0  0  0  0  0  0  0
   -6.0630  -18.3616   23.7635 H   0  0  0  0  0  0  0  0  0  0  0  0
   -7.2000  -17.1634   23.0874 H   0  0  0  0  0  0  0  0  0  0  0  0
   -1.5131  -10.8848   33.4137 H   0  0  0  0  0  0  0  0  0  0  0  0
   -1.3211   -7.7725   33.8240 H   0  0  0  0  0  0  0  0  0  0  0  0
   -0.7971   -9.0268   34.9567 H   0  0  0  0  0  0  0  0  0  0  0  0
   -3.6959   -8.7781   34.0794 H   0  0  0  0  0  0  0  0  0  0  0  0
   -2.9585   -9.9126   35.2215 H   0  0  0  0  0  0  0  0  0  0  0  0
  1  2  1  0
  2  3  1  0
  3  4  2  0
  3  5  1  0
  5  6  2  0
  6  7  1  0
  7  8  2  0
  8  9  1  0
  9 10  2  0
  2 11  1  0
 11 12  1  0
 12 13  1  0
 13 14  1  0
 14 15  2  0
 14 16  1  0
 16 17  1  0
 17 18  1  0
 18 19  1  0
 19 20  1  0
 20 21  1  0
 11 22  1  0
 22 23  1  0
 23 24  1  0
 10  5  1  0
 21 17  1  0
 24 22  1  0
  1 25  1  0
  1 26  1  0
  1 27  1  0
  6 28  1  0
  7 29  1  0
  8 30  1  0
 10 31  1  0
 11 32  1  0
 12 33  1  0
 12 34  1  0
 13 35  1  0
 16 36  1  0
 16 37  1  0
 17 38  1  0
 18 39  1  0
 18 40  1  0
 19 41  1  0
 19 42  1  0
 20 43  1  0
 20 44  1  0
 22 45  1  0
 23 46  1  0
 23 47  1  0
 24 48  1  0
 24 49  1  0
M  END
>  <Energy>  (1363) 
1257.5615420086665

>  <compound_id>  (1363) 
24607

>  <target_id>  (1363) 
1

>  <reference_id>  (1363) 
56

>  <inspiration_ids>  (1363) 
[56, 28]

>  <energy_score>  (1363) 
1157.8367202184788

>  <distance_score>  (1363) 
9.78649237869983

>  <path>  (1363) 
/opt/xchem-fragalysis-2/maxwin/BulkDock/SCRATCH/511017/C24607-P56/C24607-P56.minimised.mol

>  <scratch_subdir>  (1363) 
/opt/xchem-fragalysis-2/maxwin/BulkDock/SCRATCH/511017/C24607-P56

>  <fragmenstein_runtime>  (1363) 
24.692776679992676

>  <fragmenstein_outcome>  (1363) 
too moved

>  <fragmenstein_mode>  (1363) 
expansion

>  <fragmenstein_error>  (1363) 


$$$$
C24607-P28
     RDKit          3D

 49 51  0  0  0  0  0  0  0  0999 V2000
   -2.1102  -12.0046   26.9729 C   0  0  0  0  0  0  0  0  0  0  0  0
   -3.0890  -12.7845   26.7514 N   0  0  0  0  0  0  0  0  0  0  0  0
   -3.2816  -12.9080   25.4132 C   0  0  0  0  0  0  0  0  0  0  0  0
   -3.9734  -12.2535   24.6545 O   0  0  0  0  0  0  0  0  0  0  0  0
   -2.5286  -14.5792   24.4189 C   0  0  0  0  0  0  0  0  0  0  0  0
   -3.8892  -15.3042   23.5571 C   0  0  0  0  0  0  0  0  0  0  0  0
   -4.0141  -16.2933   21.9375 C   0  0  0  0  0  0  0  0  0  0  0  0
   -2.6031  -16.0387   20.8916 C   0  0  0  0  0  0  0  0  0  0  0  0
   -1.3071  -15.1425   21.5432 N   0  0  0  0  0  0  0  0  0  0  0  0
   -1.2578  -14.6558   23.2811 C   0  0  0  0  0  0  0  0  0  0  0  0
   -3.7585  -11.8637   27.8216 C   0  0  0  0  0  0  0  0  0  0  0  0
   -5.8087  -11.9048   27.5684 C   0  0  0  0  0  0  0  0  0  0  0  0
   -6.6451  -12.9601   26.4965 N   0  0  0  0  0  0  0  0  0  0  0  0
   -7.6788  -13.9991   26.7509 C   0  0  0  0  0  0  0  0  0  0  0  0
   -8.2654  -14.2971   27.7704 O   0  0  0  0  0  0  0  0  0  0  0  0
   -8.0111  -15.1614   25.2312 C   0  0  0  0  0  0  0  0  0  0  0  0
   -7.4785  -16.5598   23.7782 C   0  0  0  0  0  0  0  0  0  0  0  0
   -7.8165  -17.0774   22.0115 C   0  0  0  0  0  0  0  0  0  0  0  0
   -6.9827  -18.2007   21.4688 C   0  0  0  0  0  0  0  0  0  0  0  0
   -7.0333  -18.9148   22.7449 C   0  0  0  0  0  0  0  0  0  0  0  0
   -6.6684  -17.9717   23.7982 O   0  0  0  0  0  0  0  0  0  0  0  0
   -2.4850  -11.4042   29.2637 C   0  0  0  0  0  0  0  0  0  0  0  0
   -1.1799   -9.9289   29.2393 C   0  0  0  0  0  0  0  0  0  0  0  0
   -1.5877  -10.4802   30.4762 C   0  0  0  0  0  0  0  0  0  0  0  0
   -1.6674  -11.2504   27.6112 H   0  0  0  0  0  0  0  0  0  0  0  0
   -2.3777  -10.9615   26.8441 H   0  0  0  0  0  0  0  0  0  0  0  0
   -2.3914  -11.6454   26.0383 H   0  0  0  0  0  0  0  0  0  0  0  0
   -4.8712  -15.0088   23.8521 H   0  0  0  0  0  0  0  0  0  0  0  0
   -4.8828  -16.8235   21.6768 H   0  0  0  0  0  0  0  0  0  0  0  0
   -2.4360  -16.4601   19.9120 H   0  0  0  0  0  0  0  0  0  0  0  0
   -0.3807  -13.9691   23.3450 H   0  0  0  0  0  0  0  0  0  0  0  0
   -4.0536  -12.3660   28.7390 H   0  0  0  0  0  0  0  0  0  0  0  0
   -6.0675  -11.5557   28.5662 H   0  0  0  0  0  0  0  0  0  0  0  0
   -6.4109  -12.5924   28.2042 H   0  0  0  0  0  0  0  0  0  0  0  0
   -6.4423  -12.9307   25.5169 H   0  0  0  0  0  0  0  0  0  0  0  0
   -8.2388  -15.8792   26.0449 H   0  0  0  0  0  0  0  0  0  0  0  0
   -7.1500  -14.7323   24.8294 H   0  0  0  0  0  0  0  0  0  0  0  0
   -8.7013  -16.2365   24.5623 H   0  0  0  0  0  0  0  0  0  0  0  0
   -8.6111  -17.7403   22.0943 H   0  0  0  0  0  0  0  0  0  0  0  0
   -7.9602  -16.3712   21.2069 H   0  0  0  0  0  0  0  0  0  0  0  0
   -7.4603  -18.7444   20.6484 H   0  0  0  0  0  0  0  0  0  0  0  0
   -6.0077  -17.9780   21.0905 H   0  0  0  0  0  0  0  0  0  0  0  0
   -8.0152  -19.2540   23.0118 H   0  0  0  0  0  0  0  0  0  0  0  0
   -6.5824  -19.8915   22.6678 H   0  0  0  0  0  0  0  0  0  0  0  0
   -3.3708  -11.4766   29.8661 H   0  0  0  0  0  0  0  0  0  0  0  0
   -0.1303   -9.8849   28.9252 H   0  0  0  0  0  0  0  0  0  0  0  0
   -1.2291   -8.8220   29.2467 H   0  0  0  0  0  0  0  0  0  0  0  0
   -2.0051   -9.8470   31.2650 H   0  0  0  0  0  0  0  0  0  0  0  0
   -0.8405  -10.9888   31.0123 H   0  0  0  0  0  0  0  0  0  0  0  0
  1  2  1  0
  2  3  1  0
  3  4  2  0
  3  5  1  0
  5  6  2  0
  6  7  1  0
  7  8  2  0
  8  9  1  0
  9 10  2  0
  2 11  1  0
 11 12  1  0
 12 13  1  0
 13 14  1  0
 14 15  2  0
 14 16  1  0
 16 17  1  0
 17 18  1  0
 18 19  1  0
 19 20  1  0
 20 21  1  0
 11 22  1  0
 22 23  1  0
 23 24  1  0
 10  5  1  0
 21 17  1  0
 24 22  1  0
  1 25  1  0
  1 26  1  0
  1 27  1  0
  6 28  1  0
  7 29  1  0
  8 30  1  0
 10 31  1  0
 11 32  1  0
 12 33  1  0
 12 34  1  0
 13 35  1  0
 16 36  1  0
 16 37  1  0
 17 38  1  0
 18 39  1  0
 18 40  1  0
 19 41  1  0
 19 42  1  0
 20 43  1  0
 20 44  1  0
 22 45  1  0
 23 46  1  0
 23 47  1  0
 24 48  1  0
 24 49  1  0
M  END
>  <Energy>  (1364) 
1466.6179405769456

>  <compound_id>  (1364) 
24607

>  <target_id>  (1364) 
1

>  <reference_id>  (1364) 
28

>  <inspiration_ids>  (1364) 
[56, 28]

>  <energy_score>  (1364) 
1366.8931187867497

>  <distance_score>  (1364) 
12.91835090708934

>  <path>  (1364) 
/opt/xchem-fragalysis-2/maxwin/BulkDock/SCRATCH/511017/C24607-P28/C24607-P28.minimised.mol

>  <scratch_subdir>  (1364) 
/opt/xchem-fragalysis-2/maxwin/BulkDock/SCRATCH/511017/C24607-P28

>  <fragmenstein_runtime>  (1364) 
17.716058254241943

>  <fragmenstein_outcome>  (1364) 
too moved

>  <fragmenstein_mode>  (1364) 
expansion

>  <fragmenstein_error>  (1364) 


$$$$
C24624-P56
     RDKit          3D

 40 41  0  0  0  0  0  0  0  0999 V2000
   -2.7970  -11.9934   23.6844 C   0  0  0  0  0  0  0  0  0  0  0  0
   -2.1718  -13.0505   24.4635 N   0  0  0  0  0  0  0  0  0  0  0  0
   -2.0564  -12.7736   25.9254 C   0  0  0  0  0  0  0  0  0  0  0  0
   -1.0625  -11.6496   26.3302 C   0  0  0  0  0  0  0  0  0  0  0  0
   -1.5414  -10.8385   27.4450 N   0  0  0  0  0  0  0  0  0  0  0  0
   -1.9794  -11.2114   28.7633 C   0  0  0  0  0  0  0  0  0  0  0  0
   -2.1380  -12.2911   29.2582 O   0  0  0  0  0  0  0  0  0  0  0  0
   -2.3805   -9.9186   29.5628 C   0  0  0  0  0  0  0  0  0  0  0  0
   -2.3416  -10.1330   31.0694 C   0  0  0  0  0  0  0  0  0  0  0  0
   -2.0913   -8.7543   31.6168 C   0  0  0  0  0  0  0  0  0  0  0  0
   -1.2764   -8.0973   30.5297 C   0  0  0  0  0  0  0  0  0  0  0  0
   -1.5927   -8.7512   29.2912 O   0  0  0  0  0  0  0  0  0  0  0  0
   -2.4179  -14.5058   23.8806 C   0  0  0  0  0  0  0  0  0  0  0  0
   -3.8898  -15.4408   23.4216 C   0  0  0  0  0  0  0  0  0  0  0  0
   -5.3201  -15.5479   23.9219 C   0  0  0  0  0  0  0  0  0  0  0  0
   -6.3237  -17.2355   23.4473 C   0  0  0  0  0  0  0  0  0  0  0  0
   -6.4714  -17.9254   22.1254 C   0  0  0  0  0  0  0  0  0  0  0  0
   -5.5165  -17.3298   21.3358 C   0  0  0  0  0  0  0  0  0  0  0  0
   -4.2003  -16.3200   21.9770 N   0  0  0  0  0  0  0  0  0  0  0  0
   -2.4577  -11.0013   23.9976 H   0  0  0  0  0  0  0  0  0  0  0  0
   -2.5232  -12.0758   22.6282 H   0  0  0  0  0  0  0  0  0  0  0  0
   -3.8870  -12.0041   23.7778 H   0  0  0  0  0  0  0  0  0  0  0  0
   -1.7507  -13.6918   26.4405 H   0  0  0  0  0  0  0  0  0  0  0  0
   -3.0310  -12.4913   26.3242 H   0  0  0  0  0  0  0  0  0  0  0  0
   -0.8643  -10.9566   25.5082 H   0  0  0  0  0  0  0  0  0  0  0  0
   -0.1080  -12.0951   26.6300 H   0  0  0  0  0  0  0  0  0  0  0  0
   -1.6041   -9.8262   27.3487 H   0  0  0  0  0  0  0  0  0  0  0  0
   -3.4071   -9.6784   29.2570 H   0  0  0  0  0  0  0  0  0  0  0  0
   -1.5275  -10.8087   31.3386 H   0  0  0  0  0  0  0  0  0  0  0  0
   -3.2659  -10.5794   31.4498 H   0  0  0  0  0  0  0  0  0  0  0  0
   -1.5933   -8.7484   32.5901 H   0  0  0  0  0  0  0  0  0  0  0  0
   -3.0471   -8.2390   31.7295 H   0  0  0  0  0  0  0  0  0  0  0  0
   -1.4871   -7.0285   30.4417 H   0  0  0  0  0  0  0  0  0  0  0  0
   -0.2085   -8.2055   30.7099 H   0  0  0  0  0  0  0  0  0  0  0  0
   -1.8068  -14.4109   22.9801 H   0  0  0  0  0  0  0  0  0  0  0  0
   -1.9130  -15.1747   24.5880 H   0  0  0  0  0  0  0  0  0  0  0  0
   -5.9285  -14.6440   23.6699 H   0  0  0  0  0  0  0  0  0  0  0  0
   -6.2823  -18.1898   23.9964 H   0  0  0  0  0  0  0  0  0  0  0  0
   -7.0435  -18.8047   21.9102 H   0  0  0  0  0  0  0  0  0  0  0  0
   -5.3733  -17.6146   20.2879 H   0  0  0  0  0  0  0  0  0  0  0  0
  1  2  1  0
  2  3  1  0
  3  4  1  0
  4  5  1  0
  5  6  1  0
  6  7  2  0
  6  8  1  0
  8  9  1  0
  9 10  1  0
 10 11  1  0
 11 12  1  0
  2 13  1  0
 13 14  1  0
 14 15  2  0
 15 16  1  0
 16 17  2  0
 17 18  1  0
 18 19  2  0
 12  8  1  0
 19 14  1  0
  1 20  1  0
  1 21  1  0
  1 22  1  0
  3 23  1  0
  3 24  1  0
  4 25  1  0
  4 26  1  0
  5 27  1  0
  8 28  1  0
  9 29  1  0
  9 30  1  0
 10 31  1  0
 10 32  1  0
 11 33  1  0
 11 34  1  0
 13 35  1  0
 13 36  1  0
 15 37  1  0
 16 38  1  0
 17 39  1  0
 18 40  1  0
M  END
>  <Energy>  (1365) 
440.61735177668214

>  <compound_id>  (1365) 
24624

>  <target_id>  (1365) 
1

>  <reference_id>  (1365) 
56

>  <inspiration_ids>  (1365) 
[56, 28]

>  <energy_score>  (1365) 
330.52481881833154

>  <distance_score>  (1365) 
13.333181039445677

>  <path>  (1365) 
/opt/xchem-fragalysis-2/maxwin/BulkDock/SCRATCH/511017/C24624-P56/C24624-P56.minimised.mol

>  <scratch_subdir>  (1365) 
/opt/xchem-fragalysis-2/maxwin/BulkDock/SCRATCH/511017/C24624-P56

>  <fragmenstein_runtime>  (1365) 
8.094098329544067

>  <fragmenstein_outcome>  (1365) 
too moved

>  <fragmenstein_mode>  (1365) 
expansion

>  <fragmenstein_error>  (1365) 


$$$$
C24624-P28
     RDKit          3D

 40 41  0  0  0  0  0  0  0  0999 V2000
   -6.2756  -10.8847   23.5658 C   0  0  0  0  0  0  0  0  0  0  0  0
   -5.7781  -11.8573   24.5982 N   0  0  0  0  0  0  0  0  0  0  0  0
   -4.4641  -11.1635   25.0762 C   0  0  0  0  0  0  0  0  0  0  0  0
   -4.7344  -10.1075   26.1790 C   0  0  0  0  0  0  0  0  0  0  0  0
   -3.5167   -9.5780   26.7641 N   0  0  0  0  0  0  0  0  0  0  0  0
   -2.6545  -10.1072   27.7818 C   0  0  0  0  0  0  0  0  0  0  0  0
   -2.6752  -11.1590   28.3547 O   0  0  0  0  0  0  0  0  0  0  0  0
   -1.4758   -9.1051   28.0353 C   0  0  0  0  0  0  0  0  0  0  0  0
   -0.7719   -9.3403   29.3680 C   0  0  0  0  0  0  0  0  0  0  0  0
   -0.7693   -7.9979   30.0575 C   0  0  0  0  0  0  0  0  0  0  0  0
   -0.7697   -7.0796   28.8681 C   0  0  0  0  0  0  0  0  0  0  0  0
   -1.7017   -7.6907   27.9545 O   0  0  0  0  0  0  0  0  0  0  0  0
   -5.6164  -13.3757   23.7263 C   0  0  0  0  0  0  0  0  0  0  0  0
   -5.4079  -15.3868   23.9829 C   0  0  0  0  0  0  0  0  0  0  0  0
   -6.4886  -17.0786   23.6771 C   0  0  0  0  0  0  0  0  0  0  0  0
   -6.6204  -18.0615   22.5468 C   0  0  0  0  0  0  0  0  0  0  0  0
   -5.7886  -17.7423   21.4961 C   0  0  0  0  0  0  0  0  0  0  0  0
   -4.6606  -16.7182   21.8326 C   0  0  0  0  0  0  0  0  0  0  0  0
   -4.3862  -15.6418   23.0947 N   0  0  0  0  0  0  0  0  0  0  0  0
   -5.5102  -10.6614   22.8124 H   0  0  0  0  0  0  0  0  0  0  0  0
   -6.5894   -9.9510   24.0427 H   0  0  0  0  0  0  0  0  0  0  0  0
   -7.1368  -11.2511   23.0034 H   0  0  0  0  0  0  0  0  0  0  0  0
   -3.9556  -10.6834   24.2287 H   0  0  0  0  0  0  0  0  0  0  0  0
   -3.7085  -11.8635   25.4448 H   0  0  0  0  0  0  0  0  0  0  0  0
   -5.3039  -10.5700   26.9924 H   0  0  0  0  0  0  0  0  0  0  0  0
   -5.3023   -9.2582   25.7893 H   0  0  0  0  0  0  0  0  0  0  0  0
   -3.1484   -8.6833   26.4507 H   0  0  0  0  0  0  0  0  0  0  0  0
   -0.7640   -9.3385   27.2296 H   0  0  0  0  0  0  0  0  0  0  0  0
    0.2550   -9.6376   29.1309 H   0  0  0  0  0  0  0  0  0  0  0  0
   -1.2196  -10.1167   29.9930 H   0  0  0  0  0  0  0  0  0  0  0  0
   -1.6939   -7.8785   30.6333 H   0  0  0  0  0  0  0  0  0  0  0  0
    0.0839   -7.8463   30.7226 H   0  0  0  0  0  0  0  0  0  0  0  0
    0.2132   -7.0394   28.3832 H   0  0  0  0  0  0  0  0  0  0  0  0
   -1.0710   -6.0586   29.1078 H   0  0  0  0  0  0  0  0  0  0  0  0
   -4.5630  -13.0368   23.7012 H   0  0  0  0  0  0  0  0  0  0  0  0
   -6.0381  -13.0356   22.8039 H   0  0  0  0  0  0  0  0  0  0  0  0
   -7.4853  -16.6737   23.7253 H   0  0  0  0  0  0  0  0  0  0  0  0
   -7.4340  -18.7630   22.4811 H   0  0  0  0  0  0  0  0  0  0  0  0
   -5.7917  -18.2907   20.5613 H   0  0  0  0  0  0  0  0  0  0  0  0
   -3.7843  -16.6558   21.1535 H   0  0  0  0  0  0  0  0  0  0  0  0
  1  2  1  0
  2  3  1  0
  3  4  1  0
  4  5  1  0
  5  6  1  0
  6  7  2  0
  6  8  1  0
  8  9  1  0
  9 10  1  0
 10 11  1  0
 11 12  1  0
  2 13  1  0
 13 14  1  0
 14 15  2  0
 15 16  1  0
 16 17  2  0
 17 18  1  0
 18 19  2  0
 12  8  1  0
 19 14  1  0
  1 20  1  0
  1 21  1  0
  1 22  1  0
  3 23  1  0
  3 24  1  0
  4 25  1  0
  4 26  1  0
  5 27  1  0
  8 28  1  0
  9 29  1  0
  9 30  1  0
 10 31  1  0
 10 32  1  0
 11 33  1  0
 11 34  1  0
 13 35  1  0
 13 36  1  0
 15 37  1  0
 16 38  1  0
 17 39  1  0
 18 40  1  0
M  END
>  <Energy>  (1366) 
475.14051931798826

>  <compound_id>  (1366) 
24624

>  <target_id>  (1366) 
1

>  <reference_id>  (1366) 
28

>  <inspiration_ids>  (1366) 
[56, 28]

>  <energy_score>  (1366) 
365.04798635963743

>  <distance_score>  (1366) 
13.340189573218346

>  <path>  (1366) 
/opt/xchem-fragalysis-2/maxwin/BulkDock/SCRATCH/511017/C24624-P28/C24624-P28.minimised.mol

>  <scratch_subdir>  (1366) 
/opt/xchem-fragalysis-2/maxwin/BulkDock/SCRATCH/511017/C24624-P28

>  <fragmenstein_runtime>  (1366) 
9.252567052841187

>  <fragmenstein_outcome>  (1366) 
too moved

>  <fragmenstein_mode>  (1366) 
expansion

>  <fragmenstein_error>  (1366) 


$$$$
C24625-P56
     RDKit          3D

 44 45  0  0  0  0  0  0  0  0999 V2000
   -1.2572  -16.6587   18.7370 C   0  0  0  0  0  0  0  0  0  0  0  0
   -2.3847  -17.4660   18.4118 O   0  0  0  0  0  0  0  0  0  0  0  0
   -3.3901  -17.3812   19.3646 C   0  0  0  0  0  0  0  0  0  0  0  0
   -4.5686  -18.1116   19.0436 C   0  0  0  0  0  0  0  0  0  0  0  0
   -5.6567  -18.1010   19.9321 C   0  0  0  0  0  0  0  0  0  0  0  0
   -5.5304  -17.3529   21.1704 C   0  0  0  0  0  0  0  0  0  0  0  0
   -4.1131  -16.4471   21.6463 C   0  0  0  0  0  0  0  0  0  0  0  0
   -3.5483  -15.4628   23.3271 C   0  0  0  0  0  0  0  0  0  0  0  0
   -2.2688  -14.2747   23.6418 N   0  0  0  0  0  0  0  0  0  0  0  0
   -1.4542  -14.6115   24.8283 C   0  0  0  0  0  0  0  0  0  0  0  0
   -2.4800  -12.7826   23.5600 C   0  0  0  0  0  0  0  0  0  0  0  0
   -1.5241  -11.7919   24.2872 C   0  0  0  0  0  0  0  0  0  0  0  0
   -1.9627  -11.3640   25.6075 N   0  0  0  0  0  0  0  0  0  0  0  0
   -1.2973  -11.4176   26.8916 C   0  0  0  0  0  0  0  0  0  0  0  0
   -0.2474  -11.9003   27.2077 O   0  0  0  0  0  0  0  0  0  0  0  0
   -2.1512  -10.6351   27.9600 C   0  0  0  0  0  0  0  0  0  0  0  0
   -2.0172   -9.1205   27.7638 C   0  0  0  0  0  0  0  0  0  0  0  0
   -1.9943   -8.5761   29.1706 C   0  0  0  0  0  0  0  0  0  0  0  0
   -1.2912   -9.6844   29.9009 C   0  0  0  0  0  0  0  0  0  0  0  0
   -1.7950  -10.8947   29.3290 O   0  0  0  0  0  0  0  0  0  0  0  0
   -3.1488  -16.5813   20.5273 N   0  0  0  0  0  0  0  0  0  0  0  0
   -0.5315  -16.7609   17.9242 H   0  0  0  0  0  0  0  0  0  0  0  0
   -1.5295  -15.5995   18.8048 H   0  0  0  0  0  0  0  0  0  0  0  0
   -0.7729  -17.0050   19.6566 H   0  0  0  0  0  0  0  0  0  0  0  0
   -4.6086  -18.6924   18.1287 H   0  0  0  0  0  0  0  0  0  0  0  0
   -6.5192  -18.7361   19.7662 H   0  0  0  0  0  0  0  0  0  0  0  0
   -6.2621  -17.7009   21.9204 H   0  0  0  0  0  0  0  0  0  0  0  0
   -4.4960  -15.1685   23.7826 H   0  0  0  0  0  0  0  0  0  0  0  0
   -3.1644  -15.9832   24.2014 H   0  0  0  0  0  0  0  0  0  0  0  0
   -0.4268  -14.2614   24.6874 H   0  0  0  0  0  0  0  0  0  0  0  0
   -1.3558  -15.6794   25.0244 H   0  0  0  0  0  0  0  0  0  0  0  0
   -1.8520  -14.1712   25.7468 H   0  0  0  0  0  0  0  0  0  0  0  0
   -2.3395  -12.5428   22.4986 H   0  0  0  0  0  0  0  0  0  0  0  0
   -3.5023  -12.4872   23.8171 H   0  0  0  0  0  0  0  0  0  0  0  0
   -1.4839  -10.8690   23.6957 H   0  0  0  0  0  0  0  0  0  0  0  0
   -0.4959  -12.1586   24.3451 H   0  0  0  0  0  0  0  0  0  0  0  0
   -2.8012  -10.8025   25.6928 H   0  0  0  0  0  0  0  0  0  0  0  0
   -3.1965  -10.9490   27.8543 H   0  0  0  0  0  0  0  0  0  0  0  0
   -1.0801   -8.8740   27.2494 H   0  0  0  0  0  0  0  0  0  0  0  0
   -2.8344   -8.7069   27.1647 H   0  0  0  0  0  0  0  0  0  0  0  0
   -3.0202   -8.4756   29.5394 H   0  0  0  0  0  0  0  0  0  0  0  0
   -1.4872   -7.6127   29.2605 H   0  0  0  0  0  0  0  0  0  0  0  0
   -0.2168   -9.6511   29.7068 H   0  0  0  0  0  0  0  0  0  0  0  0
   -1.4844   -9.6715   30.9759 H   0  0  0  0  0  0  0  0  0  0  0  0
  1  2  1  0
  2  3  1  0
  3  4  2  0
  4  5  1  0
  5  6  2  0
  6  7  1  0
  7  8  1  0
  8  9  1  0
  9 10  1  0
  9 11  1  0
 11 12  1  0
 12 13  1  0
 13 14  1  0
 14 15  2  0
 14 16  1  0
 16 17  1  0
 17 18  1  0
 18 19  1  0
 19 20  1  0
  7 21  2  0
 21  3  1  0
 20 16  1  0
  1 22  1  0
  1 23  1  0
  1 24  1  0
  4 25  1  0
  5 26  1  0
  6 27  1  0
  8 28  1  0
  8 29  1  0
 10 30  1  0
 10 31  1  0
 10 32  1  0
 11 33  1  0
 11 34  1  0
 12 35  1  0
 12 36  1  0
 13 37  1  0
 16 38  1  0
 17 39  1  0
 17 40  1  0
 18 41  1  0
 18 42  1  0
 19 43  1  0
 19 44  1  0
M  END
>  <Energy>  (1367) 
285.3496314239444

>  <compound_id>  (1367) 
24625

>  <target_id>  (1367) 
1

>  <reference_id>  (1367) 
56

>  <inspiration_ids>  (1367) 
[56, 28]

>  <energy_score>  (1367) 
186.23510753281028

>  <distance_score>  (1367) 
13.389089268722943

>  <path>  (1367) 
/opt/xchem-fragalysis-2/maxwin/BulkDock/SCRATCH/511017/C24625-P56/C24625-P56.minimised.mol

>  <scratch_subdir>  (1367) 
/opt/xchem-fragalysis-2/maxwin/BulkDock/SCRATCH/511017/C24625-P56

>  <fragmenstein_runtime>  (1367) 
9.032773733139038

>  <fragmenstein_outcome>  (1367) 
too moved

>  <fragmenstein_mode>  (1367) 
expansion

>  <fragmenstein_error>  (1367) 


$$$$
C24625-P28
     RDKit          3D

 44 45  0  0  0  0  0  0  0  0999 V2000
   -5.8788  -19.0962   19.8167 C   0  0  0  0  0  0  0  0  0  0  0  0
   -5.2707  -17.9319   20.2877 O   0  0  0  0  0  0  0  0  0  0  0  0
   -5.5396  -17.4488   21.5726 C   0  0  0  0  0  0  0  0  0  0  0  0
   -6.5469  -17.9516   22.3385 C   0  0  0  0  0  0  0  0  0  0  0  0
   -6.4439  -17.2425   23.6083 C   0  0  0  0  0  0  0  0  0  0  0  0
   -5.4379  -15.5677   24.1233 C   0  0  0  0  0  0  0  0  0  0  0  0
   -4.1084  -15.3987   23.5883 C   0  0  0  0  0  0  0  0  0  0  0  0
   -2.7170  -14.1524   23.8116 C   0  0  0  0  0  0  0  0  0  0  0  0
   -1.8230  -14.0896   25.1288 N   0  0  0  0  0  0  0  0  0  0  0  0
   -0.4696  -14.5394   24.7784 C   0  0  0  0  0  0  0  0  0  0  0  0
   -1.7386  -12.6790   25.6890 C   0  0  0  0  0  0  0  0  0  0  0  0
   -0.5836  -12.3850   26.6797 C   0  0  0  0  0  0  0  0  0  0  0  0
   -0.7226  -11.1145   27.3583 N   0  0  0  0  0  0  0  0  0  0  0  0
   -1.1356  -10.8029   28.7016 C   0  0  0  0  0  0  0  0  0  0  0  0
   -1.3938  -11.5196   29.6240 O   0  0  0  0  0  0  0  0  0  0  0  0
   -1.3320   -9.2443   28.8384 C   0  0  0  0  0  0  0  0  0  0  0  0
   -2.2796   -8.8595   29.9658 C   0  0  0  0  0  0  0  0  0  0  0  0
   -1.3706   -8.3712   31.0582 C   0  0  0  0  0  0  0  0  0  0  0  0
   -0.2545   -7.7429   30.2639 C   0  0  0  0  0  0  0  0  0  0  0  0
   -0.1308   -8.4869   29.0411 O   0  0  0  0  0  0  0  0  0  0  0  0
   -4.3563  -16.3602   22.1570 N   0  0  0  0  0  0  0  0  0  0  0  0
   -6.9373  -19.1277   20.0549 H   0  0  0  0  0  0  0  0  0  0  0  0
   -5.7869  -19.1102   18.7261 H   0  0  0  0  0  0  0  0  0  0  0  0
   -5.3382  -19.9630   20.2003 H   0  0  0  0  0  0  0  0  0  0  0  0
   -7.1568  -18.8130   22.1721 H   0  0  0  0  0  0  0  0  0  0  0  0
   -6.4682  -18.1553   24.2081 H   0  0  0  0  0  0  0  0  0  0  0  0
   -6.1607  -14.7023   23.8894 H   0  0  0  0  0  0  0  0  0  0  0  0
   -2.0473  -14.1107   22.9377 H   0  0  0  0  0  0  0  0  0  0  0  0
   -3.1976  -13.1548   23.7413 H   0  0  0  0  0  0  0  0  0  0  0  0
    0.1538  -14.6407   25.6728 H   0  0  0  0  0  0  0  0  0  0  0  0
    0.0247  -13.8542   24.0802 H   0  0  0  0  0  0  0  0  0  0  0  0
   -0.4687  -15.5290   24.3336 H   0  0  0  0  0  0  0  0  0  0  0  0
   -1.6414  -11.9690   24.8568 H   0  0  0  0  0  0  0  0  0  0  0  0
   -2.6862  -12.4522   26.1871 H   0  0  0  0  0  0  0  0  0  0  0  0
   -0.5507  -13.1617   27.4514 H   0  0  0  0  0  0  0  0  0  0  0  0
    0.3793  -12.3574   26.1604 H   0  0  0  0  0  0  0  0  0  0  0  0
   -0.6717  -10.2566   26.8211 H   0  0  0  0  0  0  0  0  0  0  0  0
   -1.7806   -8.8987   27.8978 H   0  0  0  0  0  0  0  0  0  0  0  0
   -2.9611   -9.6508   30.2721 H   0  0  0  0  0  0  0  0  0  0  0  0
   -2.9041   -8.0384   29.6140 H   0  0  0  0  0  0  0  0  0  0  0  0
   -1.0025   -9.2199   31.6359 H   0  0  0  0  0  0  0  0  0  0  0  0
   -1.8451   -7.6742   31.7524 H   0  0  0  0  0  0  0  0  0  0  0  0
    0.6953   -7.7363   30.8003 H   0  0  0  0  0  0  0  0  0  0  0  0
   -0.5007   -6.7095   29.9954 H   0  0  0  0  0  0  0  0  0  0  0  0
  1  2  1  0
  2  3  1  0
  3  4  2  0
  4  5  1  0
  5  6  2  0
  6  7  1  0
  7  8  1  0
  8  9  1  0
  9 10  1  0
  9 11  1  0
 11 12  1  0
 12 13  1  0
 13 14  1  0
 14 15  2  0
 14 16  1  0
 16 17  1  0
 17 18  1  0
 18 19  1  0
 19 20  1  0
  7 21  2  0
 21  3  1  0
 20 16  1  0
  1 22  1  0
  1 23  1  0
  1 24  1  0
  4 25  1  0
  5 26  1  0
  6 27  1  0
  8 28  1  0
  8 29  1  0
 10 30  1  0
 10 31  1  0
 10 32  1  0
 11 33  1  0
 11 34  1  0
 12 35  1  0
 12 36  1  0
 13 37  1  0
 16 38  1  0
 17 39  1  0
 17 40  1  0
 18 41  1  0
 18 42  1  0
 19 43  1  0
 19 44  1  0
M  END
>  <Energy>  (1368) 
410.2409697355501

>  <compound_id>  (1368) 
24625

>  <target_id>  (1368) 
1

>  <reference_id>  (1368) 
28

>  <inspiration_ids>  (1368) 
[56, 28]

>  <energy_score>  (1368) 
311.12644584441364

>  <distance_score>  (1368) 
13.227090723262762

>  <path>  (1368) 
/opt/xchem-fragalysis-2/maxwin/BulkDock/SCRATCH/511017/C24625-P28/C24625-P28.minimised.mol

>  <scratch_subdir>  (1368) 
/opt/xchem-fragalysis-2/maxwin/BulkDock/SCRATCH/511017/C24625-P28

>  <fragmenstein_runtime>  (1368) 
10.084129333496094

>  <fragmenstein_outcome>  (1368) 
too moved

>  <fragmenstein_mode>  (1368) 
expansion

>  <fragmenstein_error>  (1368) 


$$$$
C24626-P56
     RDKit          3D

 40 41  0  0  0  0  0  0  0  0999 V2000
   -6.7959  -19.3013   19.3521 C   0  0  0  0  0  0  0  0  0  0  0  0
   -7.9529  -19.6488   20.2773 N   0  0  0  0  0  0  0  0  0  0  0  0
   -7.3466  -18.4059   21.7311 C   0  0  0  0  0  0  0  0  0  0  0  0
   -6.1123  -17.5495   23.1794 C   0  0  0  0  0  0  0  0  0  0  0  0
   -5.5074  -15.6933   23.9495 N   0  0  0  0  0  0  0  0  0  0  0  0
   -4.3414  -15.2750   25.0438 C   0  0  0  0  0  0  0  0  0  0  0  0
   -3.4967  -15.9567   25.5973 O   0  0  0  0  0  0  0  0  0  0  0  0
   -4.6470  -13.7568   25.3042 C   0  0  0  0  0  0  0  0  0  0  0  0
   -6.1187  -13.4276   25.6569 C   0  0  0  0  0  0  0  0  0  0  0  0
   -6.1877  -13.2619   27.1630 C   0  0  0  0  0  0  0  0  0  0  0  0
   -4.7942  -13.5799   27.6072 C   0  0  0  0  0  0  0  0  0  0  0  0
   -3.9585  -13.3207   26.4642 O   0  0  0  0  0  0  0  0  0  0  0  0
   -9.8151  -20.4882   19.7238 C   0  0  0  0  0  0  0  0  0  0  0  0
  -11.7604  -20.0334   18.7897 C   0  0  0  0  0  0  0  0  0  0  0  0
  -12.7117  -21.0729   17.2388 C   0  0  0  0  0  0  0  0  0  0  0  0
  -10.8757  -21.4405   16.0272 C   0  0  0  0  0  0  0  0  0  0  0  0
   -9.5508  -21.5288   16.2629 C   0  0  0  0  0  0  0  0  0  0  0  0
   -9.0067  -22.3863   15.3347 F   0  0  0  0  0  0  0  0  0  0  0  0
   -9.1448  -20.5793   17.3131 C   0  0  0  0  0  0  0  0  0  0  0  0
  -10.1024  -19.6040   18.1924 N   0  0  0  0  0  0  0  0  0  0  0  0
   -5.8729  -19.3277   19.9465 H   0  0  0  0  0  0  0  0  0  0  0  0
   -6.8356  -18.3064   18.9031 H   0  0  0  0  0  0  0  0  0  0  0  0
   -6.5596  -19.9988   18.5805 H   0  0  0  0  0  0  0  0  0  0  0  0
   -6.8791  -19.3316   22.0683 H   0  0  0  0  0  0  0  0  0  0  0  0
   -6.8286  -17.7867   20.9984 H   0  0  0  0  0  0  0  0  0  0  0  0
   -6.0665  -18.4022   23.8699 H   0  0  0  0  0  0  0  0  0  0  0  0
   -7.0438  -17.1121   23.4205 H   0  0  0  0  0  0  0  0  0  0  0  0
   -6.0888  -14.9045   23.7584 H   0  0  0  0  0  0  0  0  0  0  0  0
   -4.2966  -13.1942   24.4331 H   0  0  0  0  0  0  0  0  0  0  0  0
   -6.4313  -12.5074   25.1520 H   0  0  0  0  0  0  0  0  0  0  0  0
   -6.8692  -14.1552   25.3531 H   0  0  0  0  0  0  0  0  0  0  0  0
   -6.9198  -13.9293   27.6287 H   0  0  0  0  0  0  0  0  0  0  0  0
   -6.4790  -12.2403   27.4214 H   0  0  0  0  0  0  0  0  0  0  0  0
   -4.6872  -14.6343   27.8843 H   0  0  0  0  0  0  0  0  0  0  0  0
   -4.4863  -12.9781   28.4649 H   0  0  0  0  0  0  0  0  0  0  0  0
  -10.2334  -21.0612   20.6131 H   0  0  0  0  0  0  0  0  0  0  0  0
   -9.3862  -21.3880   19.3227 H   0  0  0  0  0  0  0  0  0  0  0  0
  -11.3238  -21.4069   16.1396 H   0  0  0  0  0  0  0  0  0  0  0  0
  -12.5454  -21.3376   16.6666 H   0  0  0  0  0  0  0  0  0  0  0  0
   -8.1331  -20.4933   17.6351 H   0  0  0  0  0  0  0  0  0  0  0  0
  1  2  1  0
  2  3  1  0
  3  4  1  0
  4  5  1  0
  5  6  1  0
  6  7  2  0
  6  8  1  0
  8  9  1  0
  9 10  1  0
 10 11  1  0
 11 12  1  0
  2 13  1  0
 13 14  1  0
 14 15  2  0
 15 16  1  0
 16 17  2  0
 17 18  1  0
 17 19  1  0
 19 20  2  0
 12  8  1  0
 20 14  1  0
  1 21  1  0
  1 22  1  0
  1 23  1  0
  3 24  1  0
  3 25  1  0
  4 26  1  0
  4 27  1  0
  5 28  1  0
  8 29  1  0
  9 30  1  0
  9 31  1  0
 10 32  1  0
 10 33  1  0
 11 34  1  0
 11 35  1  0
 13 36  1  0
 13 37  1  0
 15 38  1  0
 16 39  1  0
 19 40  1  0
M  END
>  <Energy>  (1369) 
2258.949255257693

>  <compound_id>  (1369) 
24626

>  <target_id>  (1369) 
1

>  <reference_id>  (1369) 
56

>  <inspiration_ids>  (1369) 
[56, 28]

>  <energy_score>  (1369) 
2138.1834281656947

>  <distance_score>  (1369) 
12.559537060233385

>  <path>  (1369) 
/opt/xchem-fragalysis-2/maxwin/BulkDock/SCRATCH/511017/C24626-P56/C24626-P56.minimised.mol

>  <scratch_subdir>  (1369) 
/opt/xchem-fragalysis-2/maxwin/BulkDock/SCRATCH/511017/C24626-P56

>  <fragmenstein_runtime>  (1369) 
12.758725643157959

>  <fragmenstein_outcome>  (1369) 
too moved

>  <fragmenstein_mode>  (1369) 
expansion

>  <fragmenstein_error>  (1369) 


$$$$
C24626-P28
     RDKit          3D

 40 41  0  0  0  0  0  0  0  0999 V2000
   -5.1764  -16.1203   27.0804 C   0  0  0  0  0  0  0  0  0  0  0  0
   -5.1485  -15.6137   25.6888 N   0  0  0  0  0  0  0  0  0  0  0  0
   -4.9706  -14.0335   25.8898 C   0  0  0  0  0  0  0  0  0  0  0  0
   -3.4432  -13.5432   26.2577 C   0  0  0  0  0  0  0  0  0  0  0  0
   -2.9173  -12.4262   27.1833 N   0  0  0  0  0  0  0  0  0  0  0  0
   -2.8775  -12.3285   28.6574 C   0  0  0  0  0  0  0  0  0  0  0  0
   -3.3226  -13.0622   29.4888 O   0  0  0  0  0  0  0  0  0  0  0  0
   -1.8433  -10.9007   29.5197 C   0  0  0  0  0  0  0  0  0  0  0  0
   -0.7495   -9.5734   29.1387 C   0  0  0  0  0  0  0  0  0  0  0  0
   -0.7470   -8.5455   30.2624 C   0  0  0  0  0  0  0  0  0  0  0  0
   -1.2337   -9.3881   31.3986 C   0  0  0  0  0  0  0  0  0  0  0  0
   -1.2731  -10.7836   30.9067 O   0  0  0  0  0  0  0  0  0  0  0  0
   -6.4151  -16.2108   24.5486 C   0  0  0  0  0  0  0  0  0  0  0  0
   -6.4029  -17.6551   23.1710 C   0  0  0  0  0  0  0  0  0  0  0  0
   -7.3252  -18.5503   22.7033 C   0  0  0  0  0  0  0  0  0  0  0  0
   -7.3316  -19.0392   21.3326 C   0  0  0  0  0  0  0  0  0  0  0  0
   -6.5515  -18.7695   20.2825 C   0  0  0  0  0  0  0  0  0  0  0  0
   -6.6455  -19.2297   19.0465 F   0  0  0  0  0  0  0  0  0  0  0  0
   -5.6262  -17.9909   20.6957 C   0  0  0  0  0  0  0  0  0  0  0  0
   -5.5443  -17.4875   21.9988 N   0  0  0  0  0  0  0  0  0  0  0  0
   -4.9842  -17.1957   27.1387 H   0  0  0  0  0  0  0  0  0  0  0  0
   -4.3725  -15.6825   27.6821 H   0  0  0  0  0  0  0  0  0  0  0  0
   -6.1180  -15.8707   27.5822 H   0  0  0  0  0  0  0  0  0  0  0  0
   -5.6760  -13.6826   26.6510 H   0  0  0  0  0  0  0  0  0  0  0  0
   -5.2288  -13.5580   24.9378 H   0  0  0  0  0  0  0  0  0  0  0  0
   -2.9300  -14.4252   26.6580 H   0  0  0  0  0  0  0  0  0  0  0  0
   -2.9579  -13.3390   25.2951 H   0  0  0  0  0  0  0  0  0  0  0  0
   -2.3650  -11.6699   26.7845 H   0  0  0  0  0  0  0  0  0  0  0  0
   -2.7379  -10.7761   30.0292 H   0  0  0  0  0  0  0  0  0  0  0  0
    0.2971   -9.8790   29.1701 H   0  0  0  0  0  0  0  0  0  0  0  0
   -0.6903   -9.1184   28.1763 H   0  0  0  0  0  0  0  0  0  0  0  0
   -1.3808   -7.6727   30.0778 H   0  0  0  0  0  0  0  0  0  0  0  0
    0.2598   -8.1542   30.4458 H   0  0  0  0  0  0  0  0  0  0  0  0
   -2.2195   -9.0890   31.7630 H   0  0  0  0  0  0  0  0  0  0  0  0
   -0.5859   -9.2544   32.2621 H   0  0  0  0  0  0  0  0  0  0  0  0
   -6.4990  -15.1603   24.2332 H   0  0  0  0  0  0  0  0  0  0  0  0
   -7.4045  -16.0740   25.0052 H   0  0  0  0  0  0  0  0  0  0  0  0
   -8.0858  -19.0278   23.2589 H   0  0  0  0  0  0  0  0  0  0  0  0
   -7.9662  -19.8339   21.0225 H   0  0  0  0  0  0  0  0  0  0  0  0
   -4.8223  -17.8204   20.0007 H   0  0  0  0  0  0  0  0  0  0  0  0
  1  2  1  0
  2  3  1  0
  3  4  1  0
  4  5  1  0
  5  6  1  0
  6  7  2  0
  6  8  1  0
  8  9  1  0
  9 10  1  0
 10 11  1  0
 11 12  1  0
  2 13  1  0
 13 14  1  0
 14 15  2  0
 15 16  1  0
 16 17  2  0
 17 18  1  0
 17 19  1  0
 19 20  2  0
 12  8  1  0
 20 14  1  0
  1 21  1  0
  1 22  1  0
  1 23  1  0
  3 24  1  0
  3 25  1  0
  4 26  1  0
  4 27  1  0
  5 28  1  0
  8 29  1  0
  9 30  1  0
  9 31  1  0
 10 32  1  0
 10 33  1  0
 11 34  1  0
 11 35  1  0
 13 36  1  0
 13 37  1  0
 15 38  1  0
 16 39  1  0
 19 40  1  0
M  END
>  <Energy>  (1370) 
443.72861308517275

>  <compound_id>  (1370) 
24626

>  <target_id>  (1370) 
1

>  <reference_id>  (1370) 
28

>  <inspiration_ids>  (1370) 
[56, 28]

>  <energy_score>  (1370) 
322.9627859931664

>  <distance_score>  (1370) 
10.798290975629946

>  <path>  (1370) 
/opt/xchem-fragalysis-2/maxwin/BulkDock/SCRATCH/511017/C24626-P28/C24626-P28.minimised.mol

>  <scratch_subdir>  (1370) 
/opt/xchem-fragalysis-2/maxwin/BulkDock/SCRATCH/511017/C24626-P28

>  <fragmenstein_runtime>  (1370) 
12.976293087005615

>  <fragmenstein_outcome>  (1370) 
too moved

>  <fragmenstein_mode>  (1370) 
expansion

>  <fragmenstein_error>  (1370) 


$$$$
C24627-P56
     RDKit          3D

 44 45  0  0  0  0  0  0  0  0999 V2000
   -9.2662  -15.9884   26.5165 C   0  0  0  0  0  0  0  0  0  0  0  0
   -8.4480  -15.1655   27.3093 O   0  0  0  0  0  0  0  0  0  0  0  0
   -8.6736  -13.8715   27.6508 C   0  0  0  0  0  0  0  0  0  0  0  0
   -9.9023  -13.2293   27.5713 C   0  0  0  0  0  0  0  0  0  0  0  0
   -9.9134  -11.8754   27.7572 C   0  0  0  0  0  0  0  0  0  0  0  0
   -8.8258  -11.1673   28.1289 N   0  0  0  0  0  0  0  0  0  0  0  0
   -7.6599  -11.8170   28.3960 C   0  0  0  0  0  0  0  0  0  0  0  0
   -6.4914  -10.9445   28.9473 C   0  0  0  0  0  0  0  0  0  0  0  0
   -5.9141  -11.1834   30.3302 N   0  0  0  0  0  0  0  0  0  0  0  0
   -7.0006  -11.3066   31.3096 C   0  0  0  0  0  0  0  0  0  0  0  0
   -5.0119  -10.0470   30.7257 C   0  0  0  0  0  0  0  0  0  0  0  0
   -3.9742  -10.3651   31.8294 C   0  0  0  0  0  0  0  0  0  0  0  0
   -3.1965   -9.1989   32.2350 N   0  0  0  0  0  0  0  0  0  0  0  0
   -2.1176   -9.0630   33.1926 C   0  0  0  0  0  0  0  0  0  0  0  0
   -1.5371   -9.8887   33.8370 O   0  0  0  0  0  0  0  0  0  0  0  0
   -1.7542   -7.5606   33.4384 C   0  0  0  0  0  0  0  0  0  0  0  0
   -0.2968   -7.1963   33.2439 C   0  0  0  0  0  0  0  0  0  0  0  0
    0.2103   -6.7878   34.6026 C   0  0  0  0  0  0  0  0  0  0  0  0
   -1.0337   -6.4737   35.3836 C   0  0  0  0  0  0  0  0  0  0  0  0
   -2.1188   -7.1899   34.7840 O   0  0  0  0  0  0  0  0  0  0  0  0
   -7.5546  -13.1738   28.1345 C   0  0  0  0  0  0  0  0  0  0  0  0
   -9.1744  -17.0088   26.8612 H   0  0  0  0  0  0  0  0  0  0  0  0
  -10.3111  -15.7474   26.6471 H   0  0  0  0  0  0  0  0  0  0  0  0
   -8.8904  -15.9266   25.5107 H   0  0  0  0  0  0  0  0  0  0  0  0
  -10.8364  -13.7296   27.3570 H   0  0  0  0  0  0  0  0  0  0  0  0
  -10.8248  -11.2958   27.6473 H   0  0  0  0  0  0  0  0  0  0  0  0
   -6.8337   -9.9013   28.8959 H   0  0  0  0  0  0  0  0  0  0  0  0
   -5.6707  -11.0398   28.2247 H   0  0  0  0  0  0  0  0  0  0  0  0
   -7.6513  -10.4246   31.3195 H   0  0  0  0  0  0  0  0  0  0  0  0
   -6.6035  -11.4506   32.3197 H   0  0  0  0  0  0  0  0  0  0  0  0
   -7.6148  -12.1892   31.1031 H   0  0  0  0  0  0  0  0  0  0  0  0
   -4.4448   -9.7231   29.8431 H   0  0  0  0  0  0  0  0  0  0  0  0
   -5.6276   -9.1961   31.0356 H   0  0  0  0  0  0  0  0  0  0  0  0
   -3.2679  -11.1307   31.4908 H   0  0  0  0  0  0  0  0  0  0  0  0
   -4.4581  -10.7447   32.7346 H   0  0  0  0  0  0  0  0  0  0  0  0
   -3.3861   -8.2945   31.8190 H   0  0  0  0  0  0  0  0  0  0  0  0
   -2.3129   -6.9370   32.7468 H   0  0  0  0  0  0  0  0  0  0  0  0
   -0.2236   -6.3401   32.5613 H   0  0  0  0  0  0  0  0  0  0  0  0
    0.2738   -8.0007   32.7864 H   0  0  0  0  0  0  0  0  0  0  0  0
    0.9035   -5.9419   34.5631 H   0  0  0  0  0  0  0  0  0  0  0  0
    0.7423   -7.5990   35.0956 H   0  0  0  0  0  0  0  0  0  0  0  0
   -1.2490   -5.4032   35.3497 H   0  0  0  0  0  0  0  0  0  0  0  0
   -0.9471   -6.7624   36.4350 H   0  0  0  0  0  0  0  0  0  0  0  0
   -6.6164  -13.6756   28.3259 H   0  0  0  0  0  0  0  0  0  0  0  0
  1  2  1  0
  2  3  1  0
  3  4  2  0
  4  5  1  0
  5  6  2  0
  6  7  1  0
  7  8  1  0
  8  9  1  0
  9 10  1  0
  9 11  1  0
 11 12  1  0
 12 13  1  0
 13 14  1  0
 14 15  2  0
 14 16  1  0
 16 17  1  0
 17 18  1  0
 18 19  1  0
 19 20  1  0
  7 21  2  0
 21  3  1  0
 20 16  1  0
  1 22  1  0
  1 23  1  0
  1 24  1  0
  4 25  1  0
  5 26  1  0
  8 27  1  0
  8 28  1  0
 10 29  1  0
 10 30  1  0
 10 31  1  0
 11 32  1  0
 11 33  1  0
 12 34  1  0
 12 35  1  0
 13 36  1  0
 16 37  1  0
 17 38  1  0
 17 39  1  0
 18 40  1  0
 18 41  1  0
 19 42  1  0
 19 43  1  0
 21 44  1  0
M  END
>  <Energy>  (1371) 
101.7644057637186

>  <compound_id>  (1371) 
24627

>  <target_id>  (1371) 
1

>  <reference_id>  (1371) 
56

>  <inspiration_ids>  (1371) 
[56, 28]

>  <energy_score>  (1371) 
-1.555868616516051

>  <distance_score>  (1371) 
14.574701702278077

>  <path>  (1371) 
/opt/xchem-fragalysis-2/maxwin/BulkDock/SCRATCH/511017/C24627-P56/C24627-P56.minimised.mol

>  <scratch_subdir>  (1371) 
/opt/xchem-fragalysis-2/maxwin/BulkDock/SCRATCH/511017/C24627-P56

>  <fragmenstein_runtime>  (1371) 
15.694552421569824

>  <fragmenstein_outcome>  (1371) 
too moved

>  <fragmenstein_mode>  (1371) 
expansion

>  <fragmenstein_error>  (1371) 


$$$$
C24627-P28
     RDKit          3D

 44 45  0  0  0  0  0  0  0  0999 V2000
   -9.1061  -16.2853   15.3154 C   0  0  0  0  0  0  0  0  0  0  0  0
   -8.6457  -15.1429   16.0291 O   0  0  0  0  0  0  0  0  0  0  0  0
   -9.4960  -14.5903   16.9574 C   0  0  0  0  0  0  0  0  0  0  0  0
  -10.7933  -15.0162   17.1689 C   0  0  0  0  0  0  0  0  0  0  0  0
  -11.5095  -14.3238   18.1183 C   0  0  0  0  0  0  0  0  0  0  0  0
  -11.0155  -13.3005   18.8759 N   0  0  0  0  0  0  0  0  0  0  0  0
   -9.7028  -12.9324   18.7800 C   0  0  0  0  0  0  0  0  0  0  0  0
   -9.2339  -11.7657   19.7962 C   0  0  0  0  0  0  0  0  0  0  0  0
   -7.8313  -11.6651   20.4789 N   0  0  0  0  0  0  0  0  0  0  0  0
   -6.8979  -11.1421   19.4581 C   0  0  0  0  0  0  0  0  0  0  0  0
   -7.7592  -10.7171   21.6950 C   0  0  0  0  0  0  0  0  0  0  0  0
   -6.3918  -10.8003   22.4515 C   0  0  0  0  0  0  0  0  0  0  0  0
   -6.2571  -10.1473   23.7495 N   0  0  0  0  0  0  0  0  0  0  0  0
   -5.5578   -8.9449   24.1357 C   0  0  0  0  0  0  0  0  0  0  0  0
   -4.9756   -8.1323   23.4741 O   0  0  0  0  0  0  0  0  0  0  0  0
   -5.6031   -8.7755   25.7037 C   0  0  0  0  0  0  0  0  0  0  0  0
   -4.4912   -7.8685   26.2418 C   0  0  0  0  0  0  0  0  0  0  0  0
   -4.3428   -8.3328   27.6681 C   0  0  0  0  0  0  0  0  0  0  0  0
   -4.5624   -9.8178   27.5338 C   0  0  0  0  0  0  0  0  0  0  0  0
   -5.5054   -9.9986   26.4576 O   0  0  0  0  0  0  0  0  0  0  0  0
   -8.9761  -13.5079   17.7311 C   0  0  0  0  0  0  0  0  0  0  0  0
   -9.9500  -16.0287   14.6670 H   0  0  0  0  0  0  0  0  0  0  0  0
   -9.3669  -17.0906   16.0067 H   0  0  0  0  0  0  0  0  0  0  0  0
   -8.2803  -16.6123   14.6794 H   0  0  0  0  0  0  0  0  0  0  0  0
  -11.2661  -15.8160   16.6198 H   0  0  0  0  0  0  0  0  0  0  0  0
  -12.5479  -14.5657   18.3248 H   0  0  0  0  0  0  0  0  0  0  0  0
   -9.9429  -11.8494   20.6301 H   0  0  0  0  0  0  0  0  0  0  0  0
   -9.4511  -10.8137   19.2948 H   0  0  0  0  0  0  0  0  0  0  0  0
   -6.8630  -11.7855   18.5796 H   0  0  0  0  0  0  0  0  0  0  0  0
   -5.8694  -11.1143   19.8285 H   0  0  0  0  0  0  0  0  0  0  0  0
   -7.1722  -10.1322   19.1324 H   0  0  0  0  0  0  0  0  0  0  0  0
   -8.5706  -10.9900   22.3703 H   0  0  0  0  0  0  0  0  0  0  0  0
   -7.9504   -9.6852   21.3762 H   0  0  0  0  0  0  0  0  0  0  0  0
   -6.1417  -11.8474   22.6361 H   0  0  0  0  0  0  0  0  0  0  0  0
   -5.6021  -10.3783   21.8223 H   0  0  0  0  0  0  0  0  0  0  0  0
   -6.5604  -10.6385   24.5886 H   0  0  0  0  0  0  0  0  0  0  0  0
   -6.5808   -8.3365   25.9393 H   0  0  0  0  0  0  0  0  0  0  0  0
   -3.5541   -8.0387   25.6977 H   0  0  0  0  0  0  0  0  0  0  0  0
   -4.7392   -6.8064   26.1569 H   0  0  0  0  0  0  0  0  0  0  0  0
   -3.3800   -8.0844   28.1191 H   0  0  0  0  0  0  0  0  0  0  0  0
   -5.1449   -7.8943   28.2688 H   0  0  0  0  0  0  0  0  0  0  0  0
   -4.9570  -10.2733   28.4462 H   0  0  0  0  0  0  0  0  0  0  0  0
   -3.6387  -10.3352   27.2537 H   0  0  0  0  0  0  0  0  0  0  0  0
   -7.9974  -13.1287   17.4761 H   0  0  0  0  0  0  0  0  0  0  0  0
  1  2  1  0
  2  3  1  0
  3  4  2  0
  4  5  1  0
  5  6  2  0
  6  7  1  0
  7  8  1  0
  8  9  1  0
  9 10  1  0
  9 11  1  0
 11 12  1  0
 12 13  1  0
 13 14  1  0
 14 15  2  0
 14 16  1  0
 16 17  1  0
 17 18  1  0
 18 19  1  0
 19 20  1  0
  7 21  2  0
 21  3  1  0
 20 16  1  0
  1 22  1  0
  1 23  1  0
  1 24  1  0
  4 25  1  0
  5 26  1  0
  8 27  1  0
  8 28  1  0
 10 29  1  0
 10 30  1  0
 10 31  1  0
 11 32  1  0
 11 33  1  0
 12 34  1  0
 12 35  1  0
 13 36  1  0
 16 37  1  0
 17 38  1  0
 17 39  1  0
 18 40  1  0
 18 41  1  0
 19 42  1  0
 19 43  1  0
 21 44  1  0
M  END
>  <Energy>  (1372) 
99.642783408194333

>  <compound_id>  (1372) 
24627

>  <target_id>  (1372) 
1

>  <reference_id>  (1372) 
28

>  <inspiration_ids>  (1372) 
[56, 28]

>  <energy_score>  (1372) 
-3.6774909720418236

>  <distance_score>  (1372) 
13.886610080230442

>  <path>  (1372) 
/opt/xchem-fragalysis-2/maxwin/BulkDock/SCRATCH/511017/C24627-P28/C24627-P28.minimised.mol

>  <scratch_subdir>  (1372) 
/opt/xchem-fragalysis-2/maxwin/BulkDock/SCRATCH/511017/C24627-P28

>  <fragmenstein_runtime>  (1372) 
17.70950961112976

>  <fragmenstein_outcome>  (1372) 
too moved

>  <fragmenstein_mode>  (1372) 
expansion

>  <fragmenstein_error>  (1372) 


$$$$
C24628-P56
     RDKit          3D

 47 48  0  0  0  0  0  0  0  0999 V2000
   -0.2214  -17.4287   19.4965 C   0  0  0  0  0  0  0  0  0  0  0  0
   -1.2504  -16.6138   18.7325 C   0  0  0  0  0  0  0  0  0  0  0  0
   -2.4053  -17.4047   18.4527 O   0  0  0  0  0  0  0  0  0  0  0  0
   -3.4012  -17.3457   19.4156 C   0  0  0  0  0  0  0  0  0  0  0  0
   -4.5728  -18.0880   19.0883 C   0  0  0  0  0  0  0  0  0  0  0  0
   -5.6617  -18.0919   19.9780 C   0  0  0  0  0  0  0  0  0  0  0  0
   -5.5360  -17.3571   21.2302 C   0  0  0  0  0  0  0  0  0  0  0  0
   -4.1275  -16.4382   21.7369 C   0  0  0  0  0  0  0  0  0  0  0  0
   -3.6025  -15.4097   23.4404 C   0  0  0  0  0  0  0  0  0  0  0  0
   -2.0695  -14.7414   24.2118 N   0  0  0  0  0  0  0  0  0  0  0  0
   -1.5013  -15.6763   25.2389 C   0  0  0  0  0  0  0  0  0  0  0  0
   -1.8849  -13.2957   24.9097 C   0  0  0  0  0  0  0  0  0  0  0  0
   -1.4995  -13.1356   26.4197 C   0  0  0  0  0  0  0  0  0  0  0  0
   -1.5567  -11.8156   27.0173 N   0  0  0  0  0  0  0  0  0  0  0  0
   -1.2498  -11.3684   28.3643 C   0  0  0  0  0  0  0  0  0  0  0  0
   -0.7957  -11.9638   29.3006 O   0  0  0  0  0  0  0  0  0  0  0  0
   -1.6375   -9.8612   28.5467 C   0  0  0  0  0  0  0  0  0  0  0  0
   -0.5626   -8.9450   27.9885 C   0  0  0  0  0  0  0  0  0  0  0  0
   -0.7923   -7.6694   28.7565 C   0  0  0  0  0  0  0  0  0  0  0  0
   -1.2134   -8.1717   30.1164 C   0  0  0  0  0  0  0  0  0  0  0  0
   -1.8354   -9.4462   29.9117 O   0  0  0  0  0  0  0  0  0  0  0  0
   -3.1751  -16.5413   20.5915 N   0  0  0  0  0  0  0  0  0  0  0  0
   -0.6140  -17.7698   20.4583 H   0  0  0  0  0  0  0  0  0  0  0  0
    0.0496  -18.3270   18.9316 H   0  0  0  0  0  0  0  0  0  0  0  0
    0.6833  -16.8408   19.6750 H   0  0  0  0  0  0  0  0  0  0  0  0
   -0.8210  -16.3419   17.7613 H   0  0  0  0  0  0  0  0  0  0  0  0
   -1.4828  -15.6643   19.2285 H   0  0  0  0  0  0  0  0  0  0  0  0
   -4.6104  -18.6584   18.1666 H   0  0  0  0  0  0  0  0  0  0  0  0
   -6.5225  -18.7279   19.8058 H   0  0  0  0  0  0  0  0  0  0  0  0
   -6.2715  -17.7160   21.9748 H   0  0  0  0  0  0  0  0  0  0  0  0
   -4.4734  -14.7726   23.5603 H   0  0  0  0  0  0  0  0  0  0  0  0
   -3.7146  -15.8119   24.4265 H   0  0  0  0  0  0  0  0  0  0  0  0
   -1.9610  -16.6623   25.2900 H   0  0  0  0  0  0  0  0  0  0  0  0
   -1.6213  -15.3854   26.2774 H   0  0  0  0  0  0  0  0  0  0  0  0
   -0.4230  -15.7727   25.0707 H   0  0  0  0  0  0  0  0  0  0  0  0
   -2.7274  -12.6177   24.7494 H   0  0  0  0  0  0  0  0  0  0  0  0
   -1.0504  -12.8552   24.3461 H   0  0  0  0  0  0  0  0  0  0  0  0
   -2.1864  -13.7049   27.0500 H   0  0  0  0  0  0  0  0  0  0  0  0
   -0.4854  -13.5105   26.5981 H   0  0  0  0  0  0  0  0  0  0  0  0
   -1.8523  -11.0194   26.4635 H   0  0  0  0  0  0  0  0  0  0  0  0
   -2.5943   -9.6882   28.0383 H   0  0  0  0  0  0  0  0  0  0  0  0
    0.4333   -9.3513   28.1923 H   0  0  0  0  0  0  0  0  0  0  0  0
   -0.6456   -8.8112   26.9056 H   0  0  0  0  0  0  0  0  0  0  0  0
    0.0701   -6.9998   28.7858 H   0  0  0  0  0  0  0  0  0  0  0  0
   -1.6136   -7.1261   28.2811 H   0  0  0  0  0  0  0  0  0  0  0  0
   -0.3594   -8.2999   30.7812 H   0  0  0  0  0  0  0  0  0  0  0  0
   -1.9185   -7.4985   30.6093 H   0  0  0  0  0  0  0  0  0  0  0  0
  1  2  1  0
  2  3  1  0
  3  4  1  0
  4  5  2  0
  5  6  1  0
  6  7  2  0
  7  8  1  0
  8  9  1  0
  9 10  1  0
 10 11  1  0
 10 12  1  0
 12 13  1  0
 13 14  1  0
 14 15  1  0
 15 16  2  0
 15 17  1  0
 17 18  1  0
 18 19  1  0
 19 20  1  0
 20 21  1  0
  8 22  2  0
 22  4  1  0
 21 17  1  0
  1 23  1  0
  1 24  1  0
  1 25  1  0
  2 26  1  0
  2 27  1  0
  5 28  1  0
  6 29  1  0
  7 30  1  0
  9 31  1  0
  9 32  1  0
 11 33  1  0
 11 34  1  0
 11 35  1  0
 12 36  1  0
 12 37  1  0
 13 38  1  0
 13 39  1  0
 14 40  1  0
 17 41  1  0
 18 42  1  0
 18 43  1  0
 19 44  1  0
 19 45  1  0
 20 46  1  0
 20 47  1  0
M  END
>  <Energy>  (1373) 
348.72731472734955

>  <compound_id>  (1373) 
24628

>  <target_id>  (1373) 
1

>  <reference_id>  (1373) 
56

>  <inspiration_ids>  (1373) 
[56, 28]

>  <energy_score>  (1373) 
245.40476489086927

>  <distance_score>  (1373) 
13.075261832632167

>  <path>  (1373) 
/opt/xchem-fragalysis-2/maxwin/BulkDock/SCRATCH/511017/C24628-P56/C24628-P56.minimised.mol

>  <scratch_subdir>  (1373) 
/opt/xchem-fragalysis-2/maxwin/BulkDock/SCRATCH/511017/C24628-P56

>  <fragmenstein_runtime>  (1373) 
10.7172372341156

>  <fragmenstein_outcome>  (1373) 
too moved

>  <fragmenstein_mode>  (1373) 
expansion

>  <fragmenstein_error>  (1373) 


$$$$
C24628-P28
     RDKit          3D

 47 48  0  0  0  0  0  0  0  0999 V2000
   -5.8907  -18.7977   17.8572 C   0  0  0  0  0  0  0  0  0  0  0  0
   -5.5141  -18.4268   19.2821 C   0  0  0  0  0  0  0  0  0  0  0  0
   -6.5129  -17.5238   19.8228 O   0  0  0  0  0  0  0  0  0  0  0  0
   -6.9181  -17.7236   21.1331 C   0  0  0  0  0  0  0  0  0  0  0  0
   -7.1828  -18.9567   21.3499 C   0  0  0  0  0  0  0  0  0  0  0  0
   -7.2603  -19.1796   22.6450 C   0  0  0  0  0  0  0  0  0  0  0  0
   -6.8174  -18.1938   23.4793 C   0  0  0  0  0  0  0  0  0  0  0  0
   -7.4370  -16.9489   23.4005 C   0  0  0  0  0  0  0  0  0  0  0  0
   -8.0358  -15.8157   25.0564 C   0  0  0  0  0  0  0  0  0  0  0  0
   -7.9999  -14.4912   26.3165 N   0  0  0  0  0  0  0  0  0  0  0  0
   -7.1667  -13.2555   26.6051 C   0  0  0  0  0  0  0  0  0  0  0  0
   -8.6821  -14.6796   27.6296 C   0  0  0  0  0  0  0  0  0  0  0  0
   -7.9736  -14.4660   29.1221 C   0  0  0  0  0  0  0  0  0  0  0  0
   -7.0662  -13.3344   29.2529 N   0  0  0  0  0  0  0  0  0  0  0  0
   -7.3235  -11.9398   29.5220 C   0  0  0  0  0  0  0  0  0  0  0  0
   -8.3450  -11.3706   29.7884 O   0  0  0  0  0  0  0  0  0  0  0  0
   -6.0062  -11.0476   29.3081 C   0  0  0  0  0  0  0  0  0  0  0  0
   -4.6728  -11.6911   28.9483 C   0  0  0  0  0  0  0  0  0  0  0  0
   -3.7042  -10.5351   28.9014 C   0  0  0  0  0  0  0  0  0  0  0  0
   -4.3988   -9.4706   29.7123 C   0  0  0  0  0  0  0  0  0  0  0  0
   -5.6226  -10.0402   30.2234 O   0  0  0  0  0  0  0  0  0  0  0  0
   -7.7225  -16.9296   21.9601 N   0  0  0  0  0  0  0  0  0  0  0  0
   -5.1477  -19.4756   17.4270 H   0  0  0  0  0  0  0  0  0  0  0  0
   -5.9533  -17.9079   17.2238 H   0  0  0  0  0  0  0  0  0  0  0  0
   -6.8689  -19.2841   17.8224 H   0  0  0  0  0  0  0  0  0  0  0  0
   -4.5488  -17.9111   19.2584 H   0  0  0  0  0  0  0  0  0  0  0  0
   -5.3560  -19.3382   19.8672 H   0  0  0  0  0  0  0  0  0  0  0  0
   -7.4244  -19.5998   20.5401 H   0  0  0  0  0  0  0  0  0  0  0  0
   -7.5067  -20.1538   22.9761 H   0  0  0  0  0  0  0  0  0  0  0  0
   -6.3584  -18.5571   24.3413 H   0  0  0  0  0  0  0  0  0  0  0  0
   -7.4546  -15.0007   24.6087 H   0  0  0  0  0  0  0  0  0  0  0  0
   -9.1128  -15.9150   25.1386 H   0  0  0  0  0  0  0  0  0  0  0  0
   -6.7562  -12.6401   25.8039 H   0  0  0  0  0  0  0  0  0  0  0  0
   -7.7936  -12.4996   27.1116 H   0  0  0  0  0  0  0  0  0  0  0  0
   -6.3740  -13.4287   27.2938 H   0  0  0  0  0  0  0  0  0  0  0  0
   -9.0417  -15.6922   27.5076 H   0  0  0  0  0  0  0  0  0  0  0  0
   -9.5329  -13.9872   27.6286 H   0  0  0  0  0  0  0  0  0  0  0  0
   -8.7498  -14.3090   29.8750 H   0  0  0  0  0  0  0  0  0  0  0  0
   -7.4033  -15.3651   29.3734 H   0  0  0  0  0  0  0  0  0  0  0  0
   -6.0746  -13.4711   29.1485 H   0  0  0  0  0  0  0  0  0  0  0  0
   -6.3118  -10.4993   28.3991 H   0  0  0  0  0  0  0  0  0  0  0  0
   -4.3661  -12.4273   29.6927 H   0  0  0  0  0  0  0  0  0  0  0  0
   -4.6938  -12.1902   27.9857 H   0  0  0  0  0  0  0  0  0  0  0  0
   -2.7123  -10.7900   29.2826 H   0  0  0  0  0  0  0  0  0  0  0  0
   -3.5570  -10.1865   27.8722 H   0  0  0  0  0  0  0  0  0  0  0  0
   -4.6605   -8.6470   29.0399 H   0  0  0  0  0  0  0  0  0  0  0  0
   -3.7702   -9.0920   30.5197 H   0  0  0  0  0  0  0  0  0  0  0  0
  1  2  1  0
  2  3  1  0
  3  4  1  0
  4  5  2  0
  5  6  1  0
  6  7  2  0
  7  8  1  0
  8  9  1  0
  9 10  1  0
 10 11  1  0
 10 12  1  0
 12 13  1  0
 13 14  1  0
 14 15  1  0
 15 16  2  0
 15 17  1  0
 17 18  1  0
 18 19  1  0
 19 20  1  0
 20 21  1  0
  8 22  2  0
 22  4  1  0
 21 17  1  0
  1 23  1  0
  1 24  1  0
  1 25  1  0
  2 26  1  0
  2 27  1  0
  5 28  1  0
  6 29  1  0
  7 30  1  0
  9 31  1  0
  9 32  1  0
 11 33  1  0
 11 34  1  0
 11 35  1  0
 12 36  1  0
 12 37  1  0
 13 38  1  0
 13 39  1  0
 14 40  1  0
 17 41  1  0
 18 42  1  0
 18 43  1  0
 19 44  1  0
 19 45  1  0
 20 46  1  0
 20 47  1  0
M  END
>  <Energy>  (1374) 
472.14905114411403

>  <compound_id>  (1374) 
24628

>  <target_id>  (1374) 
1

>  <reference_id>  (1374) 
28

>  <inspiration_ids>  (1374) 
[56, 28]

>  <energy_score>  (1374) 
368.82650130764

>  <distance_score>  (1374) 
13.719269098137927

>  <path>  (1374) 
/opt/xchem-fragalysis-2/maxwin/BulkDock/SCRATCH/511017/C24628-P28/C24628-P28.minimised.mol

>  <scratch_subdir>  (1374) 
/opt/xchem-fragalysis-2/maxwin/BulkDock/SCRATCH/511017/C24628-P28

>  <fragmenstein_runtime>  (1374) 
13.73739218711853

>  <fragmenstein_outcome>  (1374) 
too moved

>  <fragmenstein_mode>  (1374) 
expansion

>  <fragmenstein_error>  (1374) 


$$$$
C24629-P56
     RDKit          3D

 49 50  0  0  0  0  0  0  0  0999 V2000
   -2.5000  -17.5902   17.0233 C   0  0  0  0  0  0  0  0  0  0  0  0
   -2.1820  -17.5035   18.5182 C   0  0  0  0  0  0  0  0  0  0  0  0
   -1.2991  -18.6760   18.9475 C   0  0  0  0  0  0  0  0  0  0  0  0
   -3.4029  -17.4160   19.4256 C   0  0  0  0  0  0  0  0  0  0  0  0
   -4.5991  -18.1422   19.1190 C   0  0  0  0  0  0  0  0  0  0  0  0
   -5.6867  -18.1108   20.0092 C   0  0  0  0  0  0  0  0  0  0  0  0
   -5.5464  -17.3674   21.2518 C   0  0  0  0  0  0  0  0  0  0  0  0
   -4.1359  -16.4427   21.7454 C   0  0  0  0  0  0  0  0  0  0  0  0
   -3.6063  -15.4072   23.4433 C   0  0  0  0  0  0  0  0  0  0  0  0
   -2.0735  -14.7565   24.2300 N   0  0  0  0  0  0  0  0  0  0  0  0
   -1.5197  -15.7172   25.2426 C   0  0  0  0  0  0  0  0  0  0  0  0
   -1.8651  -13.2946   24.9681 C   0  0  0  0  0  0  0  0  0  0  0  0
   -1.4511  -13.2546   26.4874 C   0  0  0  0  0  0  0  0  0  0  0  0
   -1.3015  -12.0667   27.3007 N   0  0  0  0  0  0  0  0  0  0  0  0
   -0.9336  -10.7240   26.9511 C   0  0  0  0  0  0  0  0  0  0  0  0
   -0.7331  -10.2218   25.8842 O   0  0  0  0  0  0  0  0  0  0  0  0
   -0.7048   -9.9488   28.3078 C   0  0  0  0  0  0  0  0  0  0  0  0
   -1.1051   -8.4839   28.3175 C   0  0  0  0  0  0  0  0  0  0  0  0
   -1.3067   -8.2204   29.7925 C   0  0  0  0  0  0  0  0  0  0  0  0
   -1.9338   -9.5111   30.2555 C   0  0  0  0  0  0  0  0  0  0  0  0
   -1.3607  -10.5548   29.4503 O   0  0  0  0  0  0  0  0  0  0  0  0
   -3.1896  -16.5773   20.6011 N   0  0  0  0  0  0  0  0  0  0  0  0
   -2.9567  -18.5486   16.7547 H   0  0  0  0  0  0  0  0  0  0  0  0
   -3.1824  -16.7921   16.7130 H   0  0  0  0  0  0  0  0  0  0  0  0
   -1.5819  -17.4925   16.4333 H   0  0  0  0  0  0  0  0  0  0  0  0
   -1.6043  -16.5814   18.6669 H   0  0  0  0  0  0  0  0  0  0  0  0
   -0.3932  -18.7260   18.3340 H   0  0  0  0  0  0  0  0  0  0  0  0
   -0.9869  -18.5715   19.9926 H   0  0  0  0  0  0  0  0  0  0  0  0
   -1.8263  -19.6320   18.8520 H   0  0  0  0  0  0  0  0  0  0  0  0
   -4.6651  -18.7616   18.2316 H   0  0  0  0  0  0  0  0  0  0  0  0
   -6.5518  -18.7459   19.8553 H   0  0  0  0  0  0  0  0  0  0  0  0
   -6.2769  -17.7198   22.0043 H   0  0  0  0  0  0  0  0  0  0  0  0
   -3.7363  -15.8040   24.4291 H   0  0  0  0  0  0  0  0  0  0  0  0
   -4.4739  -14.7647   23.5585 H   0  0  0  0  0  0  0  0  0  0  0  0
   -1.9767  -16.7044   25.2670 H   0  0  0  0  0  0  0  0  0  0  0  0
   -1.6683  -15.4692   26.2871 H   0  0  0  0  0  0  0  0  0  0  0  0
   -0.4376  -15.8049   25.0948 H   0  0  0  0  0  0  0  0  0  0  0  0
   -2.7037  -12.6081   24.8284 H   0  0  0  0  0  0  0  0  0  0  0  0
   -1.0266  -12.8585   24.4090 H   0  0  0  0  0  0  0  0  0  0  0  0
   -2.1986  -13.8047   27.0620 H   0  0  0  0  0  0  0  0  0  0  0  0
   -0.4827  -13.7568   26.5953 H   0  0  0  0  0  0  0  0  0  0  0  0
   -1.4690  -12.1141   28.3079 H   0  0  0  0  0  0  0  0  0  0  0  0
    0.3713  -10.0338   28.5073 H   0  0  0  0  0  0  0  0  0  0  0  0
   -0.3508   -7.8359   27.8622 H   0  0  0  0  0  0  0  0  0  0  0  0
   -2.0462   -8.3392   27.7736 H   0  0  0  0  0  0  0  0  0  0  0  0
   -0.3437   -8.0745   30.2883 H   0  0  0  0  0  0  0  0  0  0  0  0
   -1.9222   -7.3500   30.0110 H   0  0  0  0  0  0  0  0  0  0  0  0
   -3.0148   -9.5121   30.0789 H   0  0  0  0  0  0  0  0  0  0  0  0
   -1.7555   -9.7173   31.3139 H   0  0  0  0  0  0  0  0  0  0  0  0
  1  2  1  0
  2  3  1  0
  2  4  1  0
  4  5  2  0
  5  6  1  0
  6  7  2  0
  7  8  1  0
  8  9  1  0
  9 10  1  0
 10 11  1  0
 10 12  1  0
 12 13  1  0
 13 14  1  0
 14 15  1  0
 15 16  2  0
 15 17  1  0
 17 18  1  0
 18 19  1  0
 19 20  1  0
 20 21  1  0
  8 22  2  0
 22  4  1  0
 21 17  1  0
  1 23  1  0
  1 24  1  0
  1 25  1  0
  2 26  1  0
  3 27  1  0
  3 28  1  0
  3 29  1  0
  5 30  1  0
  6 31  1  0
  7 32  1  0
  9 33  1  0
  9 34  1  0
 11 35  1  0
 11 36  1  0
 11 37  1  0
 12 38  1  0
 12 39  1  0
 13 40  1  0
 13 41  1  0
 14 42  1  0
 17 43  1  0
 18 44  1  0
 18 45  1  0
 19 46  1  0
 19 47  1  0
 20 48  1  0
 20 49  1  0
M  END
>  <Energy>  (1375) 
370.09436230415628

>  <compound_id>  (1375) 
24629

>  <target_id>  (1375) 
1

>  <reference_id>  (1375) 
56

>  <inspiration_ids>  (1375) 
[56, 28]

>  <energy_score>  (1375) 
240.03063613352097

>  <distance_score>  (1375) 
12.960174889425508

>  <path>  (1375) 
/opt/xchem-fragalysis-2/maxwin/BulkDock/SCRATCH/511017/C24629-P56/C24629-P56.minimised.mol

>  <scratch_subdir>  (1375) 
/opt/xchem-fragalysis-2/maxwin/BulkDock/SCRATCH/511017/C24629-P56

>  <fragmenstein_runtime>  (1375) 
12.085801839828491

>  <fragmenstein_outcome>  (1375) 
too moved

>  <fragmenstein_mode>  (1375) 
expansion

>  <fragmenstein_error>  (1375) 


$$$$
C24629-P28
     RDKit          3D

 49 50  0  0  0  0  0  0  0  0999 V2000
   -5.3322  -19.0618   20.5076 C   0  0  0  0  0  0  0  0  0  0  0  0
   -5.8151  -17.7655   21.7834 C   0  0  0  0  0  0  0  0  0  0  0  0
   -6.7200  -17.4962   20.6357 C   0  0  0  0  0  0  0  0  0  0  0  0
   -6.8079  -17.2407   23.4264 C   0  0  0  0  0  0  0  0  0  0  0  0
   -7.6623  -18.0614   22.8407 C   0  0  0  0  0  0  0  0  0  0  0  0
   -8.0029  -16.8613   23.1735 C   0  0  0  0  0  0  0  0  0  0  0  0
   -8.3589  -15.9701   24.9479 C   0  0  0  0  0  0  0  0  0  0  0  0
   -7.6630  -14.9701   25.3287 C   0  0  0  0  0  0  0  0  0  0  0  0
   -7.6388  -13.8076   26.7514 C   0  0  0  0  0  0  0  0  0  0  0  0
   -6.8354  -13.5160   28.1022 N   0  0  0  0  0  0  0  0  0  0  0  0
   -6.6334  -12.0450   28.2351 C   0  0  0  0  0  0  0  0  0  0  0  0
   -7.5273  -13.9404   29.3463 C   0  0  0  0  0  0  0  0  0  0  0  0
   -6.5347  -14.2091   30.4971 C   0  0  0  0  0  0  0  0  0  0  0  0
   -7.0300  -13.8703   31.8161 N   0  0  0  0  0  0  0  0  0  0  0  0
   -7.3119  -12.5881   32.4215 C   0  0  0  0  0  0  0  0  0  0  0  0
   -7.2832  -11.4846   31.9598 O   0  0  0  0  0  0  0  0  0  0  0  0
   -7.6730  -12.7726   33.9452 C   0  0  0  0  0  0  0  0  0  0  0  0
   -6.6159  -13.5571   34.7217 C   0  0  0  0  0  0  0  0  0  0  0  0
   -6.4690  -12.8153   36.0277 C   0  0  0  0  0  0  0  0  0  0  0  0
   -6.8179  -11.4077   35.6387 C   0  0  0  0  0  0  0  0  0  0  0  0
   -7.8481  -11.5337   34.6581 O   0  0  0  0  0  0  0  0  0  0  0  0
   -6.9836  -15.3811   24.1316 N   0  0  0  0  0  0  0  0  0  0  0  0
   -6.1393  -19.4494   19.8779 H   0  0  0  0  0  0  0  0  0  0  0  0
   -4.8642  -19.9898   20.8392 H   0  0  0  0  0  0  0  0  0  0  0  0
   -4.6072  -18.5848   19.8224 H   0  0  0  0  0  0  0  0  0  0  0  0
   -5.9917  -18.7185   22.2397 H   0  0  0  0  0  0  0  0  0  0  0  0
   -6.3343  -17.4892   19.6111 H   0  0  0  0  0  0  0  0  0  0  0  0
   -7.2490  -16.5836   20.7282 H   0  0  0  0  0  0  0  0  0  0  0  0
   -7.3594  -18.3882   20.6858 H   0  0  0  0  0  0  0  0  0  0  0  0
   -7.6089  -19.0736   23.1679 H   0  0  0  0  0  0  0  0  0  0  0  0
   -8.1240  -16.3833   22.1875 H   0  0  0  0  0  0  0  0  0  0  0  0
   -9.2464  -16.2333   25.5529 H   0  0  0  0  0  0  0  0  0  0  0  0
   -7.1786  -12.9549   26.2492 H   0  0  0  0  0  0  0  0  0  0  0  0
   -8.6792  -13.7808   27.1052 H   0  0  0  0  0  0  0  0  0  0  0  0
   -6.0942  -11.7983   29.1558 H   0  0  0  0  0  0  0  0  0  0  0  0
   -7.5893  -11.5080   28.2391 H   0  0  0  0  0  0  0  0  0  0  0  0
   -6.0229  -11.6444   27.4206 H   0  0  0  0  0  0  0  0  0  0  0  0
   -8.0548  -14.8843   29.1565 H   0  0  0  0  0  0  0  0  0  0  0  0
   -8.3042  -13.2215   29.6370 H   0  0  0  0  0  0  0  0  0  0  0  0
   -6.2493  -15.2667   30.5085 H   0  0  0  0  0  0  0  0  0  0  0  0
   -5.6171  -13.6283   30.3648 H   0  0  0  0  0  0  0  0  0  0  0  0
   -7.0746  -14.5882   32.5274 H   0  0  0  0  0  0  0  0  0  0  0  0
   -8.6389  -13.2905   33.9788 H   0  0  0  0  0  0  0  0  0  0  0  0
   -6.9247  -14.5957   34.8839 H   0  0  0  0  0  0  0  0  0  0  0  0
   -5.6741  -13.6013   34.1732 H   0  0  0  0  0  0  0  0  0  0  0  0
   -7.2123  -13.1947   36.7394 H   0  0  0  0  0  0  0  0  0  0  0  0
   -5.4847  -12.9133   36.4908 H   0  0  0  0  0  0  0  0  0  0  0  0
   -5.9718  -10.8905   35.1880 H   0  0  0  0  0  0  0  0  0  0  0  0
   -7.1822  -10.8178   36.4842 H   0  0  0  0  0  0  0  0  0  0  0  0
  1  2  1  0
  2  3  1  0
  2  4  1  0
  4  5  2  0
  5  6  1  0
  6  7  2  0
  7  8  1  0
  8  9  1  0
  9 10  1  0
 10 11  1  0
 10 12  1  0
 12 13  1  0
 13 14  1  0
 14 15  1  0
 15 16  2  0
 15 17  1  0
 17 18  1  0
 18 19  1  0
 19 20  1  0
 20 21  1  0
  8 22  2  0
 22  4  1  0
 21 17  1  0
  1 23  1  0
  1 24  1  0
  1 25  1  0
  2 26  1  0
  3 27  1  0
  3 28  1  0
  3 29  1  0
  5 30  1  0
  6 31  1  0
  7 32  1  0
  9 33  1  0
  9 34  1  0
 11 35  1  0
 11 36  1  0
 11 37  1  0
 12 38  1  0
 12 39  1  0
 13 40  1  0
 13 41  1  0
 14 42  1  0
 17 43  1  0
 18 44  1  0
 18 45  1  0
 19 46  1  0
 19 47  1  0
 20 48  1  0
 20 49  1  0
M  END
>  <Energy>  (1376) 
914.58873161962595

>  <compound_id>  (1376) 
24629

>  <target_id>  (1376) 
1

>  <reference_id>  (1376) 
28

>  <inspiration_ids>  (1376) 
[56, 28]

>  <energy_score>  (1376) 
784.5250054489932

>  <distance_score>  (1376) 
14.442822272471252

>  <path>  (1376) 
/opt/xchem-fragalysis-2/maxwin/BulkDock/SCRATCH/511017/C24629-P28/C24629-P28.minimised.mol

>  <scratch_subdir>  (1376) 
/opt/xchem-fragalysis-2/maxwin/BulkDock/SCRATCH/511017/C24629-P28

>  <fragmenstein_runtime>  (1376) 
8.925354719161987

>  <fragmenstein_outcome>  (1376) 
too moved

>  <fragmenstein_mode>  (1376) 
expansion

>  <fragmenstein_error>  (1376) 


$$$$
C24630-P56
     RDKit          3D

 43 44  0  0  0  0  0  0  0  0999 V2000
   -3.8124  -21.6543   27.9314 C   0  0  0  0  0  0  0  0  0  0  0  0
   -3.2020  -21.4104   26.5819 C   0  0  0  0  0  0  0  0  0  0  0  0
   -3.6999  -22.2084   25.5072 C   0  0  0  0  0  0  0  0  0  0  0  0
   -3.1181  -22.1638   24.2535 C   0  0  0  0  0  0  0  0  0  0  0  0
   -2.0376  -21.3214   24.1214 C   0  0  0  0  0  0  0  0  0  0  0  0
   -1.5645  -20.4865   25.1076 N   0  0  0  0  0  0  0  0  0  0  0  0
   -2.1628  -20.4774   26.3505 C   0  0  0  0  0  0  0  0  0  0  0  0
   -1.4668  -19.5474   27.4935 C   0  0  0  0  0  0  0  0  0  0  0  0
   -2.0879  -18.2668   28.0558 N   0  0  0  0  0  0  0  0  0  0  0  0
   -3.2544  -18.5540   28.8773 C   0  0  0  0  0  0  0  0  0  0  0  0
   -1.2084  -17.2462   28.7144 C   0  0  0  0  0  0  0  0  0  0  0  0
   -0.8304  -17.4145   30.2054 C   0  0  0  0  0  0  0  0  0  0  0  0
   -0.6628  -16.1685   30.9510 N   0  0  0  0  0  0  0  0  0  0  0  0
   -0.2960  -15.9322   32.3217 C   0  0  0  0  0  0  0  0  0  0  0  0
    0.0435  -16.6938   33.1828 O   0  0  0  0  0  0  0  0  0  0  0  0
   -0.3484  -14.3960   32.6516 C   0  0  0  0  0  0  0  0  0  0  0  0
   -0.8354  -14.1564   34.0807 C   0  0  0  0  0  0  0  0  0  0  0  0
   -1.5703  -12.8458   34.0160 C   0  0  0  0  0  0  0  0  0  0  0  0
   -2.0794  -12.8234   32.5960 C   0  0  0  0  0  0  0  0  0  0  0  0
   -1.1723  -13.5954   31.7940 O   0  0  0  0  0  0  0  0  0  0  0  0
   -3.9986  -22.7252   28.0743 H   0  0  0  0  0  0  0  0  0  0  0  0
   -4.7668  -21.1312   28.0181 H   0  0  0  0  0  0  0  0  0  0  0  0
   -3.1484  -21.3557   28.7448 H   0  0  0  0  0  0  0  0  0  0  0  0
   -4.5240  -22.8966   25.6850 H   0  0  0  0  0  0  0  0  0  0  0  0
   -3.4685  -22.7766   23.4328 H   0  0  0  0  0  0  0  0  0  0  0  0
   -1.4955  -21.2616   23.1813 H   0  0  0  0  0  0  0  0  0  0  0  0
   -0.5241  -19.2357   27.0245 H   0  0  0  0  0  0  0  0  0  0  0  0
   -1.1829  -20.2090   28.3212 H   0  0  0  0  0  0  0  0  0  0  0  0
   -3.0204  -19.2006   29.7287 H   0  0  0  0  0  0  0  0  0  0  0  0
   -4.0271  -19.0427   28.2938 H   0  0  0  0  0  0  0  0  0  0  0  0
   -3.7058  -17.6311   29.2590 H   0  0  0  0  0  0  0  0  0  0  0  0
   -0.2946  -17.1233   28.1203 H   0  0  0  0  0  0  0  0  0  0  0  0
   -1.7396  -16.2909   28.6055 H   0  0  0  0  0  0  0  0  0  0  0  0
    0.0954  -17.9922   30.3024 H   0  0  0  0  0  0  0  0  0  0  0  0
   -1.5911  -17.9658   30.7635 H   0  0  0  0  0  0  0  0  0  0  0  0
   -0.9768  -15.2911   30.5357 H   0  0  0  0  0  0  0  0  0  0  0  0
    0.6766  -14.0221   32.5401 H   0  0  0  0  0  0  0  0  0  0  0  0
   -0.0126  -14.1493   34.8024 H   0  0  0  0  0  0  0  0  0  0  0  0
   -1.5308  -14.9460   34.3917 H   0  0  0  0  0  0  0  0  0  0  0  0
   -0.8780  -12.0257   34.2088 H   0  0  0  0  0  0  0  0  0  0  0  0
   -2.3785  -12.7657   34.7484 H   0  0  0  0  0  0  0  0  0  0  0  0
   -3.0634  -13.2998   32.5272 H   0  0  0  0  0  0  0  0  0  0  0  0
   -2.1605  -11.8111   32.1906 H   0  0  0  0  0  0  0  0  0  0  0  0
  1  2  1  0
  2  3  2  0
  3  4  1  0
  4  5  2  0
  5  6  1  0
  6  7  2  0
  7  8  1  0
  8  9  1  0
  9 10  1  0
  9 11  1  0
 11 12  1  0
 12 13  1  0
 13 14  1  0
 14 15  2  0
 14 16  1  0
 16 17  1  0
 17 18  1  0
 18 19  1  0
 19 20  1  0
  7  2  1  0
 20 16  1  0
  1 21  1  0
  1 22  1  0
  1 23  1  0
  3 24  1  0
  4 25  1  0
  5 26  1  0
  8 27  1  0
  8 28  1  0
 10 29  1  0
 10 30  1  0
 10 31  1  0
 11 32  1  0
 11 33  1  0
 12 34  1  0
 12 35  1  0
 13 36  1  0
 16 37  1  0
 17 38  1  0
 17 39  1  0
 18 40  1  0
 18 41  1  0
 19 42  1  0
 19 43  1  0
M  END
>  <Energy>  (1377) 
110.99592310344286

>  <compound_id>  (1377) 
24630

>  <target_id>  (1377) 
1

>  <reference_id>  (1377) 
56

>  <inspiration_ids>  (1377) 
[56, 28]

>  <energy_score>  (1377) 
-8.165809813087122

>  <distance_score>  (1377) 
14.342602201683242

>  <path>  (1377) 
/opt/xchem-fragalysis-2/maxwin/BulkDock/SCRATCH/511017/C24630-P56/C24630-P56.minimised.mol

>  <scratch_subdir>  (1377) 
/opt/xchem-fragalysis-2/maxwin/BulkDock/SCRATCH/511017/C24630-P56

>  <fragmenstein_runtime>  (1377) 
9.392000675201416

>  <fragmenstein_outcome>  (1377) 
too moved

>  <fragmenstein_mode>  (1377) 
expansion

>  <fragmenstein_error>  (1377) 


$$$$
C24630-P28
     RDKit          3D

 43 44  0  0  0  0  0  0  0  0999 V2000
   -1.8068  -16.2689   20.3360 C   0  0  0  0  0  0  0  0  0  0  0  0
   -3.2035  -16.8023   20.6256 C   0  0  0  0  0  0  0  0  0  0  0  0
   -3.6300  -17.7813   19.5574 C   0  0  0  0  0  0  0  0  0  0  0  0
   -4.8946  -18.4218   19.5466 C   0  0  0  0  0  0  0  0  0  0  0  0
   -5.7423  -18.1579   20.6205 C   0  0  0  0  0  0  0  0  0  0  0  0
   -5.4032  -17.3046   21.7191 N   0  0  0  0  0  0  0  0  0  0  0  0
   -4.1768  -16.4746   21.8752 C   0  0  0  0  0  0  0  0  0  0  0  0
   -3.8367  -15.2599   23.5040 C   0  0  0  0  0  0  0  0  0  0  0  0
   -2.2949  -14.3002   23.9834 N   0  0  0  0  0  0  0  0  0  0  0  0
   -1.1030  -14.1831   23.1016 C   0  0  0  0  0  0  0  0  0  0  0  0
   -1.9076  -13.7363   25.3471 C   0  0  0  0  0  0  0  0  0  0  0  0
   -2.1252  -12.1991   25.4441 C   0  0  0  0  0  0  0  0  0  0  0  0
   -1.7443  -11.5854   26.7031 N   0  0  0  0  0  0  0  0  0  0  0  0
   -0.7092  -10.6332   27.0144 C   0  0  0  0  0  0  0  0  0  0  0  0
    0.1538  -10.1641   26.3279 O   0  0  0  0  0  0  0  0  0  0  0  0
   -0.7975  -10.2472   28.5270 C   0  0  0  0  0  0  0  0  0  0  0  0
   -0.2489   -8.8488   28.8189 C   0  0  0  0  0  0  0  0  0  0  0  0
   -1.0800   -8.3830   29.9886 C   0  0  0  0  0  0  0  0  0  0  0  0
   -2.4127   -9.0146   29.6731 C   0  0  0  0  0  0  0  0  0  0  0  0
   -2.1304  -10.2869   29.0681 O   0  0  0  0  0  0  0  0  0  0  0  0
   -1.5646  -16.3692   19.2710 H   0  0  0  0  0  0  0  0  0  0  0  0
   -1.0441  -16.8325   20.8800 H   0  0  0  0  0  0  0  0  0  0  0  0
   -1.7199  -15.2068   20.5335 H   0  0  0  0  0  0  0  0  0  0  0  0
   -2.9465  -17.9972   18.7362 H   0  0  0  0  0  0  0  0  0  0  0  0
   -5.1794  -19.1113   18.7624 H   0  0  0  0  0  0  0  0  0  0  0  0
   -6.7013  -18.6500   20.7390 H   0  0  0  0  0  0  0  0  0  0  0  0
   -4.7351  -14.6733   23.6284 H   0  0  0  0  0  0  0  0  0  0  0  0
   -3.6683  -15.7538   24.4534 H   0  0  0  0  0  0  0  0  0  0  0  0
   -0.5330  -13.2745   23.3351 H   0  0  0  0  0  0  0  0  0  0  0  0
   -0.4039  -15.0145   23.2386 H   0  0  0  0  0  0  0  0  0  0  0  0
   -1.3498  -14.0614   22.0499 H   0  0  0  0  0  0  0  0  0  0  0  0
   -2.3349  -14.2795   26.1869 H   0  0  0  0  0  0  0  0  0  0  0  0
   -0.8337  -13.9227   25.4993 H   0  0  0  0  0  0  0  0  0  0  0  0
   -3.1710  -11.9312   25.2767 H   0  0  0  0  0  0  0  0  0  0  0  0
   -1.5418  -11.6975   24.6642 H   0  0  0  0  0  0  0  0  0  0  0  0
   -2.3533  -11.6905   27.5143 H   0  0  0  0  0  0  0  0  0  0  0  0
   -0.2245  -11.0131   29.0570 H   0  0  0  0  0  0  0  0  0  0  0  0
    0.8257   -8.8495   29.0210 H   0  0  0  0  0  0  0  0  0  0  0  0
   -0.4166   -8.1814   27.9643 H   0  0  0  0  0  0  0  0  0  0  0  0
   -1.1319   -7.2953   30.0815 H   0  0  0  0  0  0  0  0  0  0  0  0
   -0.6884   -8.7873   30.9265 H   0  0  0  0  0  0  0  0  0  0  0  0
   -2.9709   -8.4210   28.9415 H   0  0  0  0  0  0  0  0  0  0  0  0
   -3.0362   -9.1480   30.5568 H   0  0  0  0  0  0  0  0  0  0  0  0
  1  2  1  0
  2  3  2  0
  3  4  1  0
  4  5  2  0
  5  6  1  0
  6  7  2  0
  7  8  1  0
  8  9  1  0
  9 10  1  0
  9 11  1  0
 11 12  1  0
 12 13  1  0
 13 14  1  0
 14 15  2  0
 14 16  1  0
 16 17  1  0
 17 18  1  0
 18 19  1  0
 19 20  1  0
  7  2  1  0
 20 16  1  0
  1 21  1  0
  1 22  1  0
  1 23  1  0
  3 24  1  0
  4 25  1  0
  5 26  1  0
  8 27  1  0
  8 28  1  0
 10 29  1  0
 10 30  1  0
 10 31  1  0
 11 32  1  0
 11 33  1  0
 12 34  1  0
 12 35  1  0
 13 36  1  0
 16 37  1  0
 17 38  1  0
 17 39  1  0
 18 40  1  0
 18 41  1  0
 19 42  1  0
 19 43  1  0
M  END
>  <Energy>  (1378) 
304.09572327064768

>  <compound_id>  (1378) 
24630

>  <target_id>  (1378) 
1

>  <reference_id>  (1378) 
28

>  <inspiration_ids>  (1378) 
[56, 28]

>  <energy_score>  (1378) 
184.93399035411403

>  <distance_score>  (1378) 
13.069702855123035

>  <path>  (1378) 
/opt/xchem-fragalysis-2/maxwin/BulkDock/SCRATCH/511017/C24630-P28/C24630-P28.minimised.mol

>  <scratch_subdir>  (1378) 
/opt/xchem-fragalysis-2/maxwin/BulkDock/SCRATCH/511017/C24630-P28

>  <fragmenstein_runtime>  (1378) 
8.537376880645752

>  <fragmenstein_outcome>  (1378) 
too moved

>  <fragmenstein_mode>  (1378) 
expansion

>  <fragmenstein_error>  (1378) 


$$$$
C24632-P56
     RDKit          3D

 44 45  0  0  0  0  0  0  0  0999 V2000
  -10.2195  -13.9492   17.2234 C   0  0  0  0  0  0  0  0  0  0  0  0
  -11.4135  -14.5014   17.9530 C   0  0  0  0  0  0  0  0  0  0  0  0
  -11.9527  -15.7067   17.4237 C   0  0  0  0  0  0  0  0  0  0  0  0
  -12.9908  -16.3286   18.0809 C   0  0  0  0  0  0  0  0  0  0  0  0
  -13.5097  -15.8447   19.2233 N   0  0  0  0  0  0  0  0  0  0  0  0
  -12.9968  -14.6483   19.6946 C   0  0  0  0  0  0  0  0  0  0  0  0
  -11.9622  -13.8906   19.1283 C   0  0  0  0  0  0  0  0  0  0  0  0
  -11.4559  -12.5403   19.7540 C   0  0  0  0  0  0  0  0  0  0  0  0
  -11.4449  -12.0338   21.0370 C   0  0  0  0  0  0  0  0  0  0  0  0
  -10.7381  -10.7100   21.4664 C   0  0  0  0  0  0  0  0  0  0  0  0
  -10.4491   -9.8487   20.6401 O   0  0  0  0  0  0  0  0  0  0  0  0
  -10.3569  -10.5997   22.8244 O   0  0  0  0  0  0  0  0  0  0  0  0
   -9.3163   -9.5531   23.2036 C   0  0  0  0  0  0  0  0  0  0  0  0
   -9.0974   -9.0528   24.7730 C   0  0  0  0  0  0  0  0  0  0  0  0
   -9.5190   -7.5620   24.8573 C   0  0  0  0  0  0  0  0  0  0  0  0
  -10.0112   -9.8658   25.6982 C   0  0  0  0  0  0  0  0  0  0  0  0
   -7.5828   -9.0662   25.2493 C   0  0  0  0  0  0  0  0  0  0  0  0
   -7.2213   -8.2289   26.4878 C   0  0  0  0  0  0  0  0  0  0  0  0
   -5.8911   -8.8152   26.8817 C   0  0  0  0  0  0  0  0  0  0  0  0
   -6.0966  -10.2827   26.5895 C   0  0  0  0  0  0  0  0  0  0  0  0
   -7.1178  -10.3812   25.5854 O   0  0  0  0  0  0  0  0  0  0  0  0
  -10.4901  -13.0171   16.7178 H   0  0  0  0  0  0  0  0  0  0  0  0
   -9.4045  -13.7546   17.9284 H   0  0  0  0  0  0  0  0  0  0  0  0
   -9.8338  -14.6440   16.4700 H   0  0  0  0  0  0  0  0  0  0  0  0
  -11.5474  -16.1506   16.5198 H   0  0  0  0  0  0  0  0  0  0  0  0
  -13.4335  -17.2461   17.7076 H   0  0  0  0  0  0  0  0  0  0  0  0
  -13.4781  -14.3065   20.6085 H   0  0  0  0  0  0  0  0  0  0  0  0
  -10.9517  -11.9339   19.0003 H   0  0  0  0  0  0  0  0  0  0  0  0
  -11.8680  -12.5973   21.8588 H   0  0  0  0  0  0  0  0  0  0  0  0
   -8.3599   -9.9665   22.8717 H   0  0  0  0  0  0  0  0  0  0  0  0
   -9.5195   -8.6692   22.5884 H   0  0  0  0  0  0  0  0  0  0  0  0
   -9.5560   -7.1935   25.8876 H   0  0  0  0  0  0  0  0  0  0  0  0
   -8.8409   -6.9235   24.2801 H   0  0  0  0  0  0  0  0  0  0  0  0
  -10.5253   -7.4292   24.4422 H   0  0  0  0  0  0  0  0  0  0  0  0
   -9.7632  -10.9281   25.6918 H   0  0  0  0  0  0  0  0  0  0  0  0
   -9.9418   -9.5202   26.7350 H   0  0  0  0  0  0  0  0  0  0  0  0
  -11.0595   -9.7703   25.3935 H   0  0  0  0  0  0  0  0  0  0  0  0
   -6.9649   -8.7188   24.4096 H   0  0  0  0  0  0  0  0  0  0  0  0
   -7.1575   -7.1573   26.2792 H   0  0  0  0  0  0  0  0  0  0  0  0
   -7.9434   -8.3892   27.2962 H   0  0  0  0  0  0  0  0  0  0  0  0
   -5.6132   -8.6210   27.9209 H   0  0  0  0  0  0  0  0  0  0  0  0
   -5.0999   -8.4123   26.2385 H   0  0  0  0  0  0  0  0  0  0  0  0
   -6.4471  -10.8235   27.4743 H   0  0  0  0  0  0  0  0  0  0  0  0
   -5.1807  -10.7576   26.2285 H   0  0  0  0  0  0  0  0  0  0  0  0
  1  2  1  0
  2  3  2  0
  3  4  1  0
  4  5  2  0
  5  6  1  0
  6  7  2  0
  7  8  1  0
  8  9  2  3
  9 10  1  0
 10 11  2  0
 10 12  1  0
 12 13  1  0
 13 14  1  0
 14 15  1  0
 14 16  1  0
 14 17  1  0
 17 18  1  0
 18 19  1  0
 19 20  1  0
 20 21  1  0
  7  2  1  0
 21 17  1  0
  1 22  1  0
  1 23  1  0
  1 24  1  0
  3 25  1  0
  4 26  1  0
  6 27  1  0
  8 28  1  0
  9 29  1  0
 13 30  1  0
 13 31  1  0
 15 32  1  0
 15 33  1  0
 15 34  1  0
 16 35  1  0
 16 36  1  0
 16 37  1  0
 17 38  1  0
 18 39  1  0
 18 40  1  0
 19 41  1  0
 19 42  1  0
 20 43  1  0
 20 44  1  0
M  END
>  <Energy>  (1379) 
83.411836042131696

>  <compound_id>  (1379) 
24632

>  <target_id>  (1379) 
1

>  <reference_id>  (1379) 
56

>  <inspiration_ids>  (1379) 
[56, 28]

>  <energy_score>  (1379) 
-22.417542100904313

>  <distance_score>  (1379) 
15.526224382440818

>  <path>  (1379) 
/opt/xchem-fragalysis-2/maxwin/BulkDock/SCRATCH/511017/C24632-P56/C24632-P56.minimised.mol

>  <scratch_subdir>  (1379) 
/opt/xchem-fragalysis-2/maxwin/BulkDock/SCRATCH/511017/C24632-P56

>  <fragmenstein_runtime>  (1379) 
13.86072587966919

>  <fragmenstein_outcome>  (1379) 
too moved

>  <fragmenstein_mode>  (1379) 
expansion

>  <fragmenstein_error>  (1379) 


$$$$
C24632-P28
     RDKit          3D

 44 45  0  0  0  0  0  0  0  0999 V2000
   -3.1733  -17.8958   19.3011 C   0  0  0  0  0  0  0  0  0  0  0  0
   -4.6423  -18.0703   19.6450 C   0  0  0  0  0  0  0  0  0  0  0  0
   -5.2903  -18.7584   18.6426 C   0  0  0  0  0  0  0  0  0  0  0  0
   -6.5338  -19.1096   18.9682 C   0  0  0  0  0  0  0  0  0  0  0  0
   -7.0557  -18.9987   20.2307 N   0  0  0  0  0  0  0  0  0  0  0  0
   -6.5264  -18.2175   21.2092 C   0  0  0  0  0  0  0  0  0  0  0  0
   -5.3496  -17.5992   20.9793 C   0  0  0  0  0  0  0  0  0  0  0  0
   -4.3420  -16.4353   22.0217 C   0  0  0  0  0  0  0  0  0  0  0  0
   -4.0545  -15.3851   23.3710 C   0  0  0  0  0  0  0  0  0  0  0  0
   -2.4599  -14.6242   24.0909 C   0  0  0  0  0  0  0  0  0  0  0  0
   -1.5634  -14.0777   23.4450 O   0  0  0  0  0  0  0  0  0  0  0  0
   -2.2754  -14.8019   25.4515 O   0  0  0  0  0  0  0  0  0  0  0  0
   -1.0444  -14.3665   26.1376 C   0  0  0  0  0  0  0  0  0  0  0  0
   -0.8604  -12.9042   26.8039 C   0  0  0  0  0  0  0  0  0  0  0  0
   -0.7169  -11.8305   25.7101 C   0  0  0  0  0  0  0  0  0  0  0  0
    0.4895  -12.9655   27.5633 C   0  0  0  0  0  0  0  0  0  0  0  0
   -2.0014  -12.4814   27.7682 C   0  0  0  0  0  0  0  0  0  0  0  0
   -1.9686  -11.0421   28.2845 C   0  0  0  0  0  0  0  0  0  0  0  0
   -2.9504  -11.1139   29.4240 C   0  0  0  0  0  0  0  0  0  0  0  0
   -2.7375  -12.5104   29.9731 C   0  0  0  0  0  0  0  0  0  0  0  0
   -2.0272  -13.2648   28.9745 O   0  0  0  0  0  0  0  0  0  0  0  0
   -2.5910  -18.7035   19.7559 H   0  0  0  0  0  0  0  0  0  0  0  0
   -3.0000  -17.9349   18.2185 H   0  0  0  0  0  0  0  0  0  0  0  0
   -2.7507  -16.9436   19.6170 H   0  0  0  0  0  0  0  0  0  0  0  0
   -4.8606  -19.0085   17.6837 H   0  0  0  0  0  0  0  0  0  0  0  0
   -7.1569  -19.5878   18.2167 H   0  0  0  0  0  0  0  0  0  0  0  0
   -7.0904  -18.1395   22.1279 H   0  0  0  0  0  0  0  0  0  0  0  0
   -3.5000  -16.5225   21.3134 H   0  0  0  0  0  0  0  0  0  0  0  0
   -4.8886  -15.0995   23.9415 H   0  0  0  0  0  0  0  0  0  0  0  0
   -0.2034  -14.5559   25.4579 H   0  0  0  0  0  0  0  0  0  0  0  0
   -0.9351  -15.0994   26.9470 H   0  0  0  0  0  0  0  0  0  0  0  0
   -0.4003  -10.8628   26.1128 H   0  0  0  0  0  0  0  0  0  0  0  0
   -1.6646  -11.6867   25.1796 H   0  0  0  0  0  0  0  0  0  0  0  0
    0.0332  -12.1275   24.9681 H   0  0  0  0  0  0  0  0  0  0  0  0
    0.4632  -13.7072   28.3688 H   0  0  0  0  0  0  0  0  0  0  0  0
    0.7560  -12.0006   28.0059 H   0  0  0  0  0  0  0  0  0  0  0  0
    1.3061  -13.2450   26.8872 H   0  0  0  0  0  0  0  0  0  0  0  0
   -2.9568  -12.6418   27.2577 H   0  0  0  0  0  0  0  0  0  0  0  0
   -0.9820  -10.7737   28.6763 H   0  0  0  0  0  0  0  0  0  0  0  0
   -2.2605  -10.3054   27.5311 H   0  0  0  0  0  0  0  0  0  0  0  0
   -3.9762  -11.0125   29.0506 H   0  0  0  0  0  0  0  0  0  0  0  0
   -2.7856  -10.3297   30.1657 H   0  0  0  0  0  0  0  0  0  0  0  0
   -3.6839  -13.0108   30.1990 H   0  0  0  0  0  0  0  0  0  0  0  0
   -2.1269  -12.5015   30.8781 H   0  0  0  0  0  0  0  0  0  0  0  0
  1  2  1  0
  2  3  2  0
  3  4  1  0
  4  5  2  0
  5  6  1  0
  6  7  2  0
  7  8  1  0
  8  9  2  3
  9 10  1  0
 10 11  2  0
 10 12  1  0
 12 13  1  0
 13 14  1  0
 14 15  1  0
 14 16  1  0
 14 17  1  0
 17 18  1  0
 18 19  1  0
 19 20  1  0
 20 21  1  0
  7  2  1  0
 21 17  1  0
  1 22  1  0
  1 23  1  0
  1 24  1  0
  3 25  1  0
  4 26  1  0
  6 27  1  0
  8 28  1  0
  9 29  1  0
 13 30  1  0
 13 31  1  0
 15 32  1  0
 15 33  1  0
 15 34  1  0
 16 35  1  0
 16 36  1  0
 16 37  1  0
 17 38  1  0
 18 39  1  0
 18 40  1  0
 19 41  1  0
 19 42  1  0
 20 43  1  0
 20 44  1  0
M  END
>  <Energy>  (1380) 
260.76435106448957

>  <compound_id>  (1380) 
24632

>  <target_id>  (1380) 
1

>  <reference_id>  (1380) 
28

>  <inspiration_ids>  (1380) 
[56, 28]

>  <energy_score>  (1380) 
154.9349729214528

>  <distance_score>  (1380) 
13.762080054712085

>  <path>  (1380) 
/opt/xchem-fragalysis-2/maxwin/BulkDock/SCRATCH/511017/C24632-P28/C24632-P28.minimised.mol

>  <scratch_subdir>  (1380) 
/opt/xchem-fragalysis-2/maxwin/BulkDock/SCRATCH/511017/C24632-P28

>  <fragmenstein_runtime>  (1380) 
8.901745557785034

>  <fragmenstein_outcome>  (1380) 
too moved

>  <fragmenstein_mode>  (1380) 
expansion

>  <fragmenstein_error>  (1380) 


$$$$
C24633-P56
     RDKit          3D

 44 45  0  0  0  0  0  0  0  0999 V2000
   -2.3408  -17.5634   18.0839 C   0  0  0  0  0  0  0  0  0  0  0  0
   -3.3616  -17.4516   19.1802 C   0  0  0  0  0  0  0  0  0  0  0  0
   -4.6295  -18.0880   19.0269 C   0  0  0  0  0  0  0  0  0  0  0  0
   -5.6783  -18.0188   19.9030 N   0  0  0  0  0  0  0  0  0  0  0  0
   -5.4627  -17.2854   21.0915 C   0  0  0  0  0  0  0  0  0  0  0  0
   -4.0496  -16.3751   21.5884 C   0  0  0  0  0  0  0  0  0  0  0  0
   -3.5393  -15.4263   23.2437 C   0  0  0  0  0  0  0  0  0  0  0  0
   -2.3279  -14.7877   23.8329 C   0  0  0  0  0  0  0  0  0  0  0  0
   -1.8170  -14.3470   25.2330 C   0  0  0  0  0  0  0  0  0  0  0  0
   -1.4496  -15.1902   26.0434 O   0  0  0  0  0  0  0  0  0  0  0  0
   -1.7685  -12.9819   25.4694 O   0  0  0  0  0  0  0  0  0  0  0  0
   -1.6502  -12.5350   26.8954 C   0  0  0  0  0  0  0  0  0  0  0  0
   -0.9423  -11.1243   27.1577 C   0  0  0  0  0  0  0  0  0  0  0  0
    0.5920  -11.3338   27.1674 C   0  0  0  0  0  0  0  0  0  0  0  0
   -1.2869  -10.1649   26.0051 C   0  0  0  0  0  0  0  0  0  0  0  0
   -1.2826  -10.4514   28.5404 C   0  0  0  0  0  0  0  0  0  0  0  0
   -2.6384   -9.7733   28.6883 C   0  0  0  0  0  0  0  0  0  0  0  0
   -2.7554   -9.6674   30.1908 C   0  0  0  0  0  0  0  0  0  0  0  0
   -2.1807  -10.9956   30.6268 C   0  0  0  0  0  0  0  0  0  0  0  0
   -1.1920  -11.3695   29.6488 O   0  0  0  0  0  0  0  0  0  0  0  0
   -3.0624  -16.6006   20.3458 C   0  0  0  0  0  0  0  0  0  0  0  0
   -2.4531  -18.5065   17.5393 H   0  0  0  0  0  0  0  0  0  0  0  0
   -1.3270  -17.5451   18.4967 H   0  0  0  0  0  0  0  0  0  0  0  0
   -2.4557  -16.7323   17.3817 H   0  0  0  0  0  0  0  0  0  0  0  0
   -4.8406  -18.6847   18.1419 H   0  0  0  0  0  0  0  0  0  0  0  0
   -6.1969  -17.6571   21.8255 H   0  0  0  0  0  0  0  0  0  0  0  0
   -4.4518  -15.2120   23.7700 H   0  0  0  0  0  0  0  0  0  0  0  0
   -1.4427  -14.6306   23.2086 H   0  0  0  0  0  0  0  0  0  0  0  0
   -1.1452  -13.3095   27.4832 H   0  0  0  0  0  0  0  0  0  0  0  0
   -2.6843  -12.4667   27.2495 H   0  0  0  0  0  0  0  0  0  0  0  0
    0.9250  -11.8032   26.2347 H   0  0  0  0  0  0  0  0  0  0  0  0
    1.1293  -10.3840   27.2684 H   0  0  0  0  0  0  0  0  0  0  0  0
    0.8992  -11.9860   27.9924 H   0  0  0  0  0  0  0  0  0  0  0  0
   -2.3706  -10.0487   25.8971 H   0  0  0  0  0  0  0  0  0  0  0  0
   -0.8965  -10.5307   25.0488 H   0  0  0  0  0  0  0  0  0  0  0  0
   -0.8559   -9.1717   26.1747 H   0  0  0  0  0  0  0  0  0  0  0  0
   -0.5229   -9.6798   28.7349 H   0  0  0  0  0  0  0  0  0  0  0  0
   -2.6894   -8.8010   28.1903 H   0  0  0  0  0  0  0  0  0  0  0  0
   -3.4406  -10.4089   28.2964 H   0  0  0  0  0  0  0  0  0  0  0  0
   -2.1323   -8.8442   30.5596 H   0  0  0  0  0  0  0  0  0  0  0  0
   -3.7783   -9.5113   30.5420 H   0  0  0  0  0  0  0  0  0  0  0  0
   -2.9500  -11.7754   30.6258 H   0  0  0  0  0  0  0  0  0  0  0  0
   -1.7388  -10.9553   31.6227 H   0  0  0  0  0  0  0  0  0  0  0  0
   -2.1204  -16.0499   20.2823 H   0  0  0  0  0  0  0  0  0  0  0  0
  1  2  1  0
  2  3  2  0
  3  4  1  0
  4  5  2  0
  5  6  1  0
  6  7  1  0
  7  8  2  3
  8  9  1  0
  9 10  2  0
  9 11  1  0
 11 12  1  0
 12 13  1  0
 13 14  1  0
 13 15  1  0
 13 16  1  0
 16 17  1  0
 17 18  1  0
 18 19  1  0
 19 20  1  0
  6 21  2  0
 21  2  1  0
 20 16  1  0
  1 22  1  0
  1 23  1  0
  1 24  1  0
  3 25  1  0
  5 26  1  0
  7 27  1  0
  8 28  1  0
 12 29  1  0
 12 30  1  0
 14 31  1  0
 14 32  1  0
 14 33  1  0
 15 34  1  0
 15 35  1  0
 15 36  1  0
 16 37  1  0
 17 38  1  0
 17 39  1  0
 18 40  1  0
 18 41  1  0
 19 42  1  0
 19 43  1  0
 21 44  1  0
M  END
>  <Energy>  (1381) 
230.24359238136583

>  <compound_id>  (1381) 
24633

>  <target_id>  (1381) 
1

>  <reference_id>  (1381) 
56

>  <inspiration_ids>  (1381) 
[56, 28]

>  <energy_score>  (1381) 
145.4572241118729

>  <distance_score>  (1381) 
13.152948732521224

>  <path>  (1381) 
/opt/xchem-fragalysis-2/maxwin/BulkDock/SCRATCH/511017/C24633-P56/C24633-P56.minimised.mol

>  <scratch_subdir>  (1381) 
/opt/xchem-fragalysis-2/maxwin/BulkDock/SCRATCH/511017/C24633-P56

>  <fragmenstein_runtime>  (1381) 
11.423616170883179

>  <fragmenstein_outcome>  (1381) 
too moved

>  <fragmenstein_mode>  (1381) 
expansion

>  <fragmenstein_error>  (1381) 


$$$$
C24633-P28
     RDKit          3D

 44 45  0  0  0  0  0  0  0  0999 V2000
  -16.3276  -18.6522   24.4885 C   0  0  0  0  0  0  0  0  0  0  0  0
  -15.3773  -17.5608   24.1062 C   0  0  0  0  0  0  0  0  0  0  0  0
  -15.0867  -17.2999   22.7771 C   0  0  0  0  0  0  0  0  0  0  0  0
  -14.2435  -16.3197   22.3918 N   0  0  0  0  0  0  0  0  0  0  0  0
  -13.7158  -15.5331   23.3878 C   0  0  0  0  0  0  0  0  0  0  0  0
  -13.9624  -15.6554   24.7665 C   0  0  0  0  0  0  0  0  0  0  0  0
  -13.4831  -14.6148   25.7761 C   0  0  0  0  0  0  0  0  0  0  0  0
  -12.6012  -14.6542   26.8229 C   0  0  0  0  0  0  0  0  0  0  0  0
  -12.1160  -13.3665   27.5162 C   0  0  0  0  0  0  0  0  0  0  0  0
  -12.7294  -12.3115   27.4016 O   0  0  0  0  0  0  0  0  0  0  0  0
  -10.8964  -13.4729   28.1876 O   0  0  0  0  0  0  0  0  0  0  0  0
  -10.2970  -12.1888   28.6736 C   0  0  0  0  0  0  0  0  0  0  0  0
   -8.8899  -12.2484   29.4707 C   0  0  0  0  0  0  0  0  0  0  0  0
   -9.0850  -12.9363   30.8378 C   0  0  0  0  0  0  0  0  0  0  0  0
   -7.9053  -13.1120   28.6683 C   0  0  0  0  0  0  0  0  0  0  0  0
   -8.2992  -10.8254   29.7860 C   0  0  0  0  0  0  0  0  0  0  0  0
   -7.7472  -10.0055   28.6320 C   0  0  0  0  0  0  0  0  0  0  0  0
   -6.8795   -9.0041   29.3558 C   0  0  0  0  0  0  0  0  0  0  0  0
   -6.2807   -9.8332   30.4708 C   0  0  0  0  0  0  0  0  0  0  0  0
   -7.1961  -10.9124   30.7215 O   0  0  0  0  0  0  0  0  0  0  0  0
  -14.8312  -16.7023   25.0923 C   0  0  0  0  0  0  0  0  0  0  0  0
  -16.2757  -19.4820   23.7757 H   0  0  0  0  0  0  0  0  0  0  0  0
  -16.0793  -19.0565   25.4754 H   0  0  0  0  0  0  0  0  0  0  0  0
  -17.3520  -18.2680   24.5107 H   0  0  0  0  0  0  0  0  0  0  0  0
  -15.5239  -17.8832   21.9719 H   0  0  0  0  0  0  0  0  0  0  0  0
  -13.0839  -14.7312   23.0108 H   0  0  0  0  0  0  0  0  0  0  0  0
  -13.8830  -13.6305   25.5144 H   0  0  0  0  0  0  0  0  0  0  0  0
  -12.0953  -15.5630   27.1243 H   0  0  0  0  0  0  0  0  0  0  0  0
  -11.0408  -11.7095   29.3215 H   0  0  0  0  0  0  0  0  0  0  0  0
  -10.1541  -11.5653   27.7829 H   0  0  0  0  0  0  0  0  0  0  0  0
   -8.1372  -13.1162   31.3570 H   0  0  0  0  0  0  0  0  0  0  0  0
   -9.7259  -12.3358   31.4930 H   0  0  0  0  0  0  0  0  0  0  0  0
   -9.5718  -13.9107   30.7131 H   0  0  0  0  0  0  0  0  0  0  0  0
   -6.9246  -13.1613   29.1541 H   0  0  0  0  0  0  0  0  0  0  0  0
   -7.7576  -12.7193   27.6594 H   0  0  0  0  0  0  0  0  0  0  0  0
   -8.2763  -14.1381   28.5695 H   0  0  0  0  0  0  0  0  0  0  0  0
   -9.0782  -10.2400   30.2944 H   0  0  0  0  0  0  0  0  0  0  0  0
   -8.5310   -9.5382   28.0297 H   0  0  0  0  0  0  0  0  0  0  0  0
   -7.1151  -10.6060   27.9701 H   0  0  0  0  0  0  0  0  0  0  0  0
   -7.5066   -8.2079   29.7742 H   0  0  0  0  0  0  0  0  0  0  0  0
   -6.1274   -8.5436   28.7099 H   0  0  0  0  0  0  0  0  0  0  0  0
   -5.3270  -10.2702   30.1614 H   0  0  0  0  0  0  0  0  0  0  0  0
   -6.1440   -9.2660   31.3939 H   0  0  0  0  0  0  0  0  0  0  0  0
  -15.1172  -16.8438   26.1339 H   0  0  0  0  0  0  0  0  0  0  0  0
  1  2  1  0
  2  3  2  0
  3  4  1  0
  4  5  2  0
  5  6  1  0
  6  7  1  0
  7  8  2  3
  8  9  1  0
  9 10  2  0
  9 11  1  0
 11 12  1  0
 12 13  1  0
 13 14  1  0
 13 15  1  0
 13 16  1  0
 16 17  1  0
 17 18  1  0
 18 19  1  0
 19 20  1  0
  6 21  2  0
 21  2  1  0
 20 16  1  0
  1 22  1  0
  1 23  1  0
  1 24  1  0
  3 25  1  0
  5 26  1  0
  7 27  1  0
  8 28  1  0
 12 29  1  0
 12 30  1  0
 14 31  1  0
 14 32  1  0
 14 33  1  0
 15 34  1  0
 15 35  1  0
 15 36  1  0
 16 37  1  0
 17 38  1  0
 17 39  1  0
 18 40  1  0
 18 41  1  0
 19 42  1  0
 19 43  1  0
 21 44  1  0
M  END
>  <Energy>  (1382) 
64.303665273902084

>  <compound_id>  (1382) 
24633

>  <target_id>  (1382) 
1

>  <reference_id>  (1382) 
28

>  <inspiration_ids>  (1382) 
[56, 28]

>  <energy_score>  (1382) 
-20.482702995587772

>  <distance_score>  (1382) 
15.324565412236247

>  <path>  (1382) 
/opt/xchem-fragalysis-2/maxwin/BulkDock/SCRATCH/511017/C24633-P28/C24633-P28.minimised.mol

>  <scratch_subdir>  (1382) 
/opt/xchem-fragalysis-2/maxwin/BulkDock/SCRATCH/511017/C24633-P28

>  <fragmenstein_runtime>  (1382) 
10.336102485656738

>  <fragmenstein_outcome>  (1382) 
too moved

>  <fragmenstein_mode>  (1382) 
expansion

>  <fragmenstein_error>  (1382) 


$$$$
C24635-P56
     RDKit          3D

 45 46  0  0  0  0  0  0  0  0999 V2000
    0.2855  -12.7965   27.8600 C   0  0  0  0  0  0  0  0  0  0  0  0
   -0.7171  -12.3696   26.7775 C   0  0  0  0  0  0  0  0  0  0  0  0
   -1.1295  -13.4205   25.8728 O   0  0  0  0  0  0  0  0  0  0  0  0
   -1.7489  -14.5408   26.3319 C   0  0  0  0  0  0  0  0  0  0  0  0
   -1.7306  -14.8882   27.5080 O   0  0  0  0  0  0  0  0  0  0  0  0
   -2.4249  -15.4383   25.1046 C   0  0  0  0  0  0  0  0  0  0  0  0
   -3.4947  -15.4124   24.0832 O   0  0  0  0  0  0  0  0  0  0  0  0
   -5.2595  -15.5593   23.8633 C   0  0  0  0  0  0  0  0  0  0  0  0
   -6.0380  -17.4275   23.0309 C   0  0  0  0  0  0  0  0  0  0  0  0
   -5.9319  -17.5950   21.4565 C   0  0  0  0  0  0  0  0  0  0  0  0
   -6.3773  -18.4425   20.4977 C   0  0  0  0  0  0  0  0  0  0  0  0
   -7.1132  -19.3315   21.1235 C   0  0  0  0  0  0  0  0  0  0  0  0
   -7.1949  -19.4940   22.4752 N   0  0  0  0  0  0  0  0  0  0  0  0
   -6.5648  -18.5973   23.2966 C   0  0  0  0  0  0  0  0  0  0  0  0
   -1.8944  -11.5480   27.3912 C   0  0  0  0  0  0  0  0  0  0  0  0
   -3.0166  -11.9564   27.3184 O   0  0  0  0  0  0  0  0  0  0  0  0
   -1.3693  -10.3387   27.9735 N   0  0  0  0  0  0  0  0  0  0  0  0
   -2.0194   -9.2888   28.7338 C   0  0  0  0  0  0  0  0  0  0  0  0
   -1.2738   -9.0682   30.0566 C   0  0  0  0  0  0  0  0  0  0  0  0
   -1.3233   -7.6489   30.5791 C   0  0  0  0  0  0  0  0  0  0  0  0
   -1.2940   -7.8286   32.0730 C   0  0  0  0  0  0  0  0  0  0  0  0
   -2.1057   -9.0920   32.2352 C   0  0  0  0  0  0  0  0  0  0  0  0
   -1.8144   -9.9079   31.0923 O   0  0  0  0  0  0  0  0  0  0  0  0
   -0.2241  -13.2596   28.7114 H   0  0  0  0  0  0  0  0  0  0  0  0
    0.8526  -11.9459   28.2505 H   0  0  0  0  0  0  0  0  0  0  0  0
    0.9945  -13.5274   27.4582 H   0  0  0  0  0  0  0  0  0  0  0  0
   -0.1865  -11.6738   26.1137 H   0  0  0  0  0  0  0  0  0  0  0  0
   -1.5682  -15.2832   24.4594 H   0  0  0  0  0  0  0  0  0  0  0  0
   -2.3458  -16.4618   25.4901 H   0  0  0  0  0  0  0  0  0  0  0  0
   -5.7557  -14.5880   23.6219 H   0  0  0  0  0  0  0  0  0  0  0  0
   -4.6718  -15.3419   22.9753 H   0  0  0  0  0  0  0  0  0  0  0  0
   -5.2122  -16.9215   21.0910 H   0  0  0  0  0  0  0  0  0  0  0  0
   -6.2032  -18.3663   19.4434 H   0  0  0  0  0  0  0  0  0  0  0  0
   -7.6759  -20.0043   20.5060 H   0  0  0  0  0  0  0  0  0  0  0  0
   -6.3592  -18.8672   24.2731 H   0  0  0  0  0  0  0  0  0  0  0  0
   -0.3784  -10.2812   27.7784 H   0  0  0  0  0  0  0  0  0  0  0  0
   -3.0651   -9.5682   28.8938 H   0  0  0  0  0  0  0  0  0  0  0  0
   -1.9703   -8.3945   28.1050 H   0  0  0  0  0  0  0  0  0  0  0  0
   -0.2314   -9.3574   29.9134 H   0  0  0  0  0  0  0  0  0  0  0  0
   -2.2674   -7.2029   30.2941 H   0  0  0  0  0  0  0  0  0  0  0  0
   -0.5174   -7.0175   30.1960 H   0  0  0  0  0  0  0  0  0  0  0  0
   -0.2648   -7.9875   32.4111 H   0  0  0  0  0  0  0  0  0  0  0  0
   -1.7042   -6.9818   32.6279 H   0  0  0  0  0  0  0  0  0  0  0  0
   -1.8582   -9.6305   33.1534 H   0  0  0  0  0  0  0  0  0  0  0  0
   -3.1802   -8.8834   32.2298 H   0  0  0  0  0  0  0  0  0  0  0  0
  1  2  1  0
  2  3  1  0
  3  4  1  0
  4  5  2  0
  4  6  1  0
  6  7  1  0
  7  8  1  0
  8  9  1  0
  9 10  2  0
 10 11  1  0
 11 12  2  0
 12 13  1  0
 13 14  2  0
  2 15  1  0
 15 16  2  0
 15 17  1  0
 17 18  1  0
 18 19  1  0
 19 20  1  0
 20 21  1  0
 21 22  1  0
 22 23  1  0
 14  9  1  0
 23 19  1  0
  1 24  1  0
  1 25  1  0
  1 26  1  0
  2 27  1  0
  6 28  1  0
  6 29  1  0
  8 30  1  0
  8 31  1  0
 10 32  1  0
 11 33  1  0
 12 34  1  0
 14 35  1  0
 17 36  1  0
 18 37  1  0
 18 38  1  0
 19 39  1  0
 20 40  1  0
 20 41  1  0
 21 42  1  0
 21 43  1  0
 22 44  1  0
 22 45  1  0
M  END
>  <Energy>  (1383) 
423.54216795768997

>  <compound_id>  (1383) 
24635

>  <target_id>  (1383) 
1

>  <reference_id>  (1383) 
56

>  <inspiration_ids>  (1383) 
[56, 28]

>  <energy_score>  (1383) 
312.72812835880666

>  <distance_score>  (1383) 
13.36042577976128

>  <path>  (1383) 
/opt/xchem-fragalysis-2/maxwin/BulkDock/SCRATCH/511017/C24635-P56/C24635-P56.minimised.mol

>  <scratch_subdir>  (1383) 
/opt/xchem-fragalysis-2/maxwin/BulkDock/SCRATCH/511017/C24635-P56

>  <fragmenstein_runtime>  (1383) 
16.922871351242065

>  <fragmenstein_outcome>  (1383) 
too moved

>  <fragmenstein_mode>  (1383) 
expansion

>  <fragmenstein_error>  (1383) 


$$$$
C24635-P28
     RDKit          3D

 45 46  0  0  0  0  0  0  0  0999 V2000
   -5.3907  -11.8855   29.2205 C   0  0  0  0  0  0  0  0  0  0  0  0
   -6.8246  -11.7819   28.6656 C   0  0  0  0  0  0  0  0  0  0  0  0
   -7.1471  -13.0418   28.0187 O   0  0  0  0  0  0  0  0  0  0  0  0
   -8.4723  -13.3440   27.8928 C   0  0  0  0  0  0  0  0  0  0  0  0
   -9.3680  -12.7481   28.4853 O   0  0  0  0  0  0  0  0  0  0  0  0
   -8.7511  -14.5779   26.9698 C   0  0  0  0  0  0  0  0  0  0  0  0
   -7.8723  -14.7535   25.7571 O   0  0  0  0  0  0  0  0  0  0  0  0
   -8.2171  -15.9469   24.9757 C   0  0  0  0  0  0  0  0  0  0  0  0
   -7.5017  -16.9971   23.3120 C   0  0  0  0  0  0  0  0  0  0  0  0
   -6.8414  -18.1821   23.3877 C   0  0  0  0  0  0  0  0  0  0  0  0
   -6.8628  -19.1384   22.4141 C   0  0  0  0  0  0  0  0  0  0  0  0
   -6.5563  -18.8526   21.1264 C   0  0  0  0  0  0  0  0  0  0  0  0
   -6.8027  -17.6567   20.8033 N   0  0  0  0  0  0  0  0  0  0  0  0
   -7.5271  -17.0089   21.7894 C   0  0  0  0  0  0  0  0  0  0  0  0
   -6.9058  -10.6019   27.6441 C   0  0  0  0  0  0  0  0  0  0  0  0
   -7.2138  -10.8392   26.5124 O   0  0  0  0  0  0  0  0  0  0  0  0
   -6.4895   -9.3729   28.2652 N   0  0  0  0  0  0  0  0  0  0  0  0
   -6.2227   -8.0728   27.7028 C   0  0  0  0  0  0  0  0  0  0  0  0
   -4.7419   -7.9048   27.3412 C   0  0  0  0  0  0  0  0  0  0  0  0
   -4.2620   -8.8631   26.2571 C   0  0  0  0  0  0  0  0  0  0  0  0
   -3.1202   -8.0914   25.6478 C   0  0  0  0  0  0  0  0  0  0  0  0
   -3.6590   -6.6789   25.6738 C   0  0  0  0  0  0  0  0  0  0  0  0
   -4.4995   -6.5752   26.8326 O   0  0  0  0  0  0  0  0  0  0  0  0
   -4.6604  -11.9136   28.4045 H   0  0  0  0  0  0  0  0  0  0  0  0
   -5.2771  -12.8164   29.7848 H   0  0  0  0  0  0  0  0  0  0  0  0
   -5.1378  -11.0463   29.8718 H   0  0  0  0  0  0  0  0  0  0  0  0
   -7.5174  -11.5935   29.4941 H   0  0  0  0  0  0  0  0  0  0  0  0
   -8.7043  -15.4636   27.6181 H   0  0  0  0  0  0  0  0  0  0  0  0
   -9.7876  -14.4943   26.6210 H   0  0  0  0  0  0  0  0  0  0  0  0
   -8.4932  -16.4569   25.8961 H   0  0  0  0  0  0  0  0  0  0  0  0
   -9.3531  -15.8713   24.8219 H   0  0  0  0  0  0  0  0  0  0  0  0
   -6.4389  -18.5383   24.2851 H   0  0  0  0  0  0  0  0  0  0  0  0
   -6.7658  -20.0808   22.8873 H   0  0  0  0  0  0  0  0  0  0  0  0
   -6.1311  -19.5005   20.3812 H   0  0  0  0  0  0  0  0  0  0  0  0
   -7.9559  -16.2233   21.2283 H   0  0  0  0  0  0  0  0  0  0  0  0
   -6.3877   -9.5241   29.2632 H   0  0  0  0  0  0  0  0  0  0  0  0
   -6.8448   -7.9455   26.8096 H   0  0  0  0  0  0  0  0  0  0  0  0
   -6.5360   -7.3124   28.4241 H   0  0  0  0  0  0  0  0  0  0  0  0
   -4.1207   -8.0309   28.2358 H   0  0  0  0  0  0  0  0  0  0  0  0
   -5.0396   -9.0238   25.5005 H   0  0  0  0  0  0  0  0  0  0  0  0
   -3.9610   -9.8376   26.6520 H   0  0  0  0  0  0  0  0  0  0  0  0
   -2.2349   -8.1681   26.2900 H   0  0  0  0  0  0  0  0  0  0  0  0
   -2.8479   -8.4270   24.6439 H   0  0  0  0  0  0  0  0  0  0  0  0
   -2.8664   -5.9274   25.7261 H   0  0  0  0  0  0  0  0  0  0  0  0
   -4.2780   -6.4737   24.7938 H   0  0  0  0  0  0  0  0  0  0  0  0
  1  2  1  0
  2  3  1  0
  3  4  1  0
  4  5  2  0
  4  6  1  0
  6  7  1  0
  7  8  1  0
  8  9  1  0
  9 10  2  0
 10 11  1  0
 11 12  2  0
 12 13  1  0
 13 14  2  0
  2 15  1  0
 15 16  2  0
 15 17  1  0
 17 18  1  0
 18 19  1  0
 19 20  1  0
 20 21  1  0
 21 22  1  0
 22 23  1  0
 14  9  1  0
 23 19  1  0
  1 24  1  0
  1 25  1  0
  1 26  1  0
  2 27  1  0
  6 28  1  0
  6 29  1  0
  8 30  1  0
  8 31  1  0
 10 32  1  0
 11 33  1  0
 12 34  1  0
 14 35  1  0
 17 36  1  0
 18 37  1  0
 18 38  1  0
 19 39  1  0
 20 40  1  0
 20 41  1  0
 21 42  1  0
 21 43  1  0
 22 44  1  0
 22 45  1  0
M  END
>  <Energy>  (1384) 
319.84364628904683

>  <compound_id>  (1384) 
24635

>  <target_id>  (1384) 
1

>  <reference_id>  (1384) 
28

>  <inspiration_ids>  (1384) 
[56, 28]

>  <energy_score>  (1384) 
209.02960669016568

>  <distance_score>  (1384) 
14.306654743148147

>  <path>  (1384) 
/opt/xchem-fragalysis-2/maxwin/BulkDock/SCRATCH/511017/C24635-P28/C24635-P28.minimised.mol

>  <scratch_subdir>  (1384) 
/opt/xchem-fragalysis-2/maxwin/BulkDock/SCRATCH/511017/C24635-P28

>  <fragmenstein_runtime>  (1384) 
16.319611072540283

>  <fragmenstein_outcome>  (1384) 
too moved

>  <fragmenstein_mode>  (1384) 
expansion

>  <fragmenstein_error>  (1384) 


$$$$
C24640-P56
     RDKit          3D

 45 46  0  0  0  0  0  0  0  0999 V2000
   -9.9069  -26.8093   12.4073 C   0  0  0  0  0  0  0  0  0  0  0  0
  -10.8901  -26.1032   13.3263 C   0  0  0  0  0  0  0  0  0  0  0  0
  -10.6071  -24.6302   13.4299 C   0  0  0  0  0  0  0  0  0  0  0  0
  -10.9598  -23.7884   12.4164 C   0  0  0  0  0  0  0  0  0  0  0  0
  -10.5764  -22.4913   12.5925 C   0  0  0  0  0  0  0  0  0  0  0  0
  -10.0142  -21.9570   13.7071 N   0  0  0  0  0  0  0  0  0  0  0  0
   -9.4611  -22.7176   14.6697 C   0  0  0  0  0  0  0  0  0  0  0  0
   -7.8856  -22.1492   14.8693 C   0  0  0  0  0  0  0  0  0  0  0  0
   -7.2819  -22.2269   13.7956 O   0  0  0  0  0  0  0  0  0  0  0  0
   -7.2513  -21.4889   16.6073 N   0  0  0  0  0  0  0  0  0  0  0  0
   -5.6065  -20.9493   17.1679 C   0  0  0  0  0  0  0  0  0  0  0  0
   -4.9724  -19.5089   18.5693 C   0  0  0  0  0  0  0  0  0  0  0  0
   -3.4296  -18.2477   18.9858 C   0  0  0  0  0  0  0  0  0  0  0  0
   -2.6590  -17.2912   20.3668 O   0  0  0  0  0  0  0  0  0  0  0  0
   -1.2163  -16.1105   20.5979 C   0  0  0  0  0  0  0  0  0  0  0  0
   -0.5450  -14.9373   22.1704 C   0  0  0  0  0  0  0  0  0  0  0  0
   -0.0439  -13.0624   22.6072 C   0  0  0  0  0  0  0  0  0  0  0  0
    1.3901  -12.6064   22.8076 C   0  0  0  0  0  0  0  0  0  0  0  0
    1.7281  -13.8569   23.4418 C   0  0  0  0  0  0  0  0  0  0  0  0
    1.1202  -14.6924   22.3981 O   0  0  0  0  0  0  0  0  0  0  0  0
   -9.8128  -24.0934   14.4821 C   0  0  0  0  0  0  0  0  0  0  0  0
   -8.8805  -26.7127   12.7731 H   0  0  0  0  0  0  0  0  0  0  0  0
  -10.1446  -27.8763   12.3504 H   0  0  0  0  0  0  0  0  0  0  0  0
   -9.9415  -26.4024   11.3911 H   0  0  0  0  0  0  0  0  0  0  0  0
  -10.8602  -26.5603   14.3228 H   0  0  0  0  0  0  0  0  0  0  0  0
  -11.9129  -26.2495   12.9573 H   0  0  0  0  0  0  0  0  0  0  0  0
  -11.4383  -24.1205   11.5059 H   0  0  0  0  0  0  0  0  0  0  0  0
  -10.6480  -21.7891   11.7861 H   0  0  0  0  0  0  0  0  0  0  0  0
   -7.9997  -21.4712   17.2822 H   0  0  0  0  0  0  0  0  0  0  0  0
   -5.2540  -20.3646   16.3965 H   0  0  0  0  0  0  0  0  0  0  0  0
   -5.0214  -21.9378   16.9405 H   0  0  0  0  0  0  0  0  0  0  0  0
   -5.7986  -18.7871   18.5214 H   0  0  0  0  0  0  0  0  0  0  0  0
   -5.1035  -19.9715   19.5575 H   0  0  0  0  0  0  0  0  0  0  0  0
   -3.6350  -17.4168   18.3153 H   0  0  0  0  0  0  0  0  0  0  0  0
   -2.5448  -18.8105   18.7620 H   0  0  0  0  0  0  0  0  0  0  0  0
   -1.8707  -15.5266   19.9637 H   0  0  0  0  0  0  0  0  0  0  0  0
   -0.4216  -16.7906   20.3105 H   0  0  0  0  0  0  0  0  0  0  0  0
   -1.0873  -15.1185   23.1586 H   0  0  0  0  0  0  0  0  0  0  0  0
   -0.3810  -12.3663   21.8151 H   0  0  0  0  0  0  0  0  0  0  0  0
   -0.3548  -12.9162   23.6592 H   0  0  0  0  0  0  0  0  0  0  0  0
    1.9019  -12.4478   21.8522 H   0  0  0  0  0  0  0  0  0  0  0  0
    1.4989  -11.7212   23.4386 H   0  0  0  0  0  0  0  0  0  0  0  0
    1.2845  -14.0001   24.4264 H   0  0  0  0  0  0  0  0  0  0  0  0
    2.8062  -14.0354   23.4805 H   0  0  0  0  0  0  0  0  0  0  0  0
   -9.3889  -24.8969   15.0548 H   0  0  0  0  0  0  0  0  0  0  0  0
  1  2  1  0
  2  3  1  0
  3  4  2  0
  4  5  1  0
  5  6  2  0
  6  7  1  0
  7  8  1  0
  8  9  2  0
  8 10  1  0
 10 11  1  0
 11 12  1  0
 12 13  1  0
 13 14  1  0
 14 15  1  0
 15 16  1  0
 16 17  1  0
 17 18  1  0
 18 19  1  0
 19 20  1  0
  7 21  2  0
 21  3  1  0
 20 16  1  0
  1 22  1  0
  1 23  1  0
  1 24  1  0
  2 25  1  0
  2 26  1  0
  4 27  1  0
  5 28  1  0
 10 29  1  0
 11 30  1  0
 11 31  1  0
 12 32  1  0
 12 33  1  0
 13 34  1  0
 13 35  1  0
 15 36  1  0
 15 37  1  0
 16 38  1  0
 17 39  1  0
 17 40  1  0
 18 41  1  0
 18 42  1  0
 19 43  1  0
 19 44  1  0
 21 45  1  0
M  END
>  <Energy>  (1385) 
857.25738213584611

>  <compound_id>  (1385) 
24640

>  <target_id>  (1385) 
1

>  <reference_id>  (1385) 
56

>  <inspiration_ids>  (1385) 
[56, 28]

>  <energy_score>  (1385) 
763.1930616407078

>  <distance_score>  (1385) 
13.826298686949292

>  <path>  (1385) 
/opt/xchem-fragalysis-2/maxwin/BulkDock/SCRATCH/511017/C24640-P56/C24640-P56.minimised.mol

>  <scratch_subdir>  (1385) 
/opt/xchem-fragalysis-2/maxwin/BulkDock/SCRATCH/511017/C24640-P56

>  <fragmenstein_runtime>  (1385) 
17.79297947883606

>  <fragmenstein_outcome>  (1385) 
too moved

>  <fragmenstein_mode>  (1385) 
expansion

>  <fragmenstein_error>  (1385) 


$$$$
C24640-P28
     RDKit          3D

 45 46  0  0  0  0  0  0  0  0999 V2000
   -8.8782  -20.7129   16.7598 C   0  0  0  0  0  0  0  0  0  0  0  0
   -8.1273  -20.2173   18.0179 C   0  0  0  0  0  0  0  0  0  0  0  0
   -7.1196  -19.3362   19.1281 C   0  0  0  0  0  0  0  0  0  0  0  0
   -6.5211  -18.1922   18.9453 C   0  0  0  0  0  0  0  0  0  0  0  0
   -6.3001  -17.5402   20.1740 C   0  0  0  0  0  0  0  0  0  0  0  0
   -6.2823  -17.8070   21.5126 N   0  0  0  0  0  0  0  0  0  0  0  0
   -7.2099  -18.6205   21.8339 C   0  0  0  0  0  0  0  0  0  0  0  0
   -6.8601  -19.4326   23.0438 C   0  0  0  0  0  0  0  0  0  0  0  0
   -7.4963  -20.4641   23.0486 O   0  0  0  0  0  0  0  0  0  0  0  0
   -5.6799  -18.9322   24.0159 N   0  0  0  0  0  0  0  0  0  0  0  0
   -4.6840  -19.8688   25.4940 C   0  0  0  0  0  0  0  0  0  0  0  0
   -2.8124  -19.0753   26.3003 C   0  0  0  0  0  0  0  0  0  0  0  0
   -2.7771  -17.9213   27.8369 C   0  0  0  0  0  0  0  0  0  0  0  0
   -2.0070  -16.6409   27.9195 O   0  0  0  0  0  0  0  0  0  0  0  0
   -2.1676  -15.9683   29.2368 C   0  0  0  0  0  0  0  0  0  0  0  0
   -1.7286  -14.4698   29.3364 C   0  0  0  0  0  0  0  0  0  0  0  0
   -0.2588  -14.2163   29.6492 C   0  0  0  0  0  0  0  0  0  0  0  0
   -0.2835  -12.8120   30.2182 C   0  0  0  0  0  0  0  0  0  0  0  0
   -1.5611  -12.8196   31.0253 C   0  0  0  0  0  0  0  0  0  0  0  0
   -2.4320  -13.7988   30.4246 O   0  0  0  0  0  0  0  0  0  0  0  0
   -7.2591  -19.4646   20.5917 C   0  0  0  0  0  0  0  0  0  0  0  0
   -8.2622  -21.1565   15.9732 H   0  0  0  0  0  0  0  0  0  0  0  0
   -9.5265  -19.9352   16.3826 H   0  0  0  0  0  0  0  0  0  0  0  0
   -9.5076  -21.5636   16.8475 H   0  0  0  0  0  0  0  0  0  0  0  0
   -7.3406  -20.9378   17.8349 H   0  0  0  0  0  0  0  0  0  0  0  0
   -8.1255  -19.2620   17.4667 H   0  0  0  0  0  0  0  0  0  0  0  0
   -6.9658  -17.6699   18.1221 H   0  0  0  0  0  0  0  0  0  0  0  0
   -6.8968  -16.6570   20.2642 H   0  0  0  0  0  0  0  0  0  0  0  0
   -5.3308  -18.0909   23.6869 H   0  0  0  0  0  0  0  0  0  0  0  0
   -4.5824  -20.8739   25.0816 H   0  0  0  0  0  0  0  0  0  0  0  0
   -5.4289  -19.9110   26.2999 H   0  0  0  0  0  0  0  0  0  0  0  0
   -2.1246  -19.6898   26.8429 H   0  0  0  0  0  0  0  0  0  0  0  0
   -2.1969  -18.3691   25.7356 H   0  0  0  0  0  0  0  0  0  0  0  0
   -2.3104  -18.5613   28.5989 H   0  0  0  0  0  0  0  0  0  0  0  0
   -3.7961  -17.7197   28.1832 H   0  0  0  0  0  0  0  0  0  0  0  0
   -1.6275  -16.5700   29.9764 H   0  0  0  0  0  0  0  0  0  0  0  0
   -3.2318  -16.0189   29.4970 H   0  0  0  0  0  0  0  0  0  0  0  0
   -2.0059  -13.9542   28.4089 H   0  0  0  0  0  0  0  0  0  0  0  0
    0.0987  -14.9147   30.4153 H   0  0  0  0  0  0  0  0  0  0  0  0
    0.3851  -14.3117   28.7713 H   0  0  0  0  0  0  0  0  0  0  0  0
   -0.3602  -12.0840   29.4020 H   0  0  0  0  0  0  0  0  0  0  0  0
    0.5982  -12.5637   30.8146 H   0  0  0  0  0  0  0  0  0  0  0  0
   -2.0577  -11.8454   31.0363 H   0  0  0  0  0  0  0  0  0  0  0  0
   -1.3783  -13.1319   32.0586 H   0  0  0  0  0  0  0  0  0  0  0  0
   -6.1298  -19.8293   20.6548 H   0  0  0  0  0  0  0  0  0  0  0  0
  1  2  1  0
  2  3  1  0
  3  4  2  0
  4  5  1  0
  5  6  2  0
  6  7  1  0
  7  8  1  0
  8  9  2  0
  8 10  1  0
 10 11  1  0
 11 12  1  0
 12 13  1  0
 13 14  1  0
 14 15  1  0
 15 16  1  0
 16 17  1  0
 17 18  1  0
 18 19  1  0
 19 20  1  0
  7 21  2  0
 21  3  1  0
 20 16  1  0
  1 22  1  0
  1 23  1  0
  1 24  1  0
  2 25  1  0
  2 26  1  0
  4 27  1  0
  5 28  1  0
 10 29  1  0
 11 30  1  0
 11 31  1  0
 12 32  1  0
 12 33  1  0
 13 34  1  0
 13 35  1  0
 15 36  1  0
 15 37  1  0
 16 38  1  0
 17 39  1  0
 17 40  1  0
 18 41  1  0
 18 42  1  0
 19 43  1  0
 19 44  1  0
 21 45  1  0
M  END
>  <Energy>  (1386) 
610.63208209900699

>  <compound_id>  (1386) 
24640

>  <target_id>  (1386) 
1

>  <reference_id>  (1386) 
28

>  <inspiration_ids>  (1386) 
[56, 28]

>  <energy_score>  (1386) 
516.5677616038633

>  <distance_score>  (1386) 
12.796339295811858

>  <path>  (1386) 
/opt/xchem-fragalysis-2/maxwin/BulkDock/SCRATCH/511017/C24640-P28/C24640-P28.minimised.mol

>  <scratch_subdir>  (1386) 
/opt/xchem-fragalysis-2/maxwin/BulkDock/SCRATCH/511017/C24640-P28

>  <fragmenstein_runtime>  (1386) 
10.825018644332886

>  <fragmenstein_outcome>  (1386) 
too moved

>  <fragmenstein_mode>  (1386) 
expansion

>  <fragmenstein_error>  (1386) 


$$$$
C87622-P97
     RDKit          3D

 50 51  0  0  0  0  0  0  0  0999 V2000
   14.9770   -0.2450   19.7116 C   0  0  0  0  0  0  0  0  0  0  0  0
   15.2689    1.1082   19.0784 C   0  0  0  0  0  0  0  0  0  0  0  0
   16.1009    0.9495   17.8021 C   0  0  0  0  0  0  0  0  0  0  0  0
   16.2946    2.2902   17.0806 C   0  0  0  0  0  0  0  0  0  0  0  0
   17.3027    2.2080   15.9434 C   0  0  0  0  0  0  0  0  0  0  0  0
   15.4967   -0.1851   16.9611 C   0  0  0  0  0  0  0  0  0  0  0  0
   16.0536   -1.2063   16.8547 O   0  0  0  0  0  0  0  0  0  0  0  0
   14.0950    0.2565   16.4489 N   0  0  0  0  0  0  0  0  0  0  0  0
   13.1242   -0.4489   15.6099 C   0  0  0  0  0  0  0  0  0  0  0  0
   13.5156   -1.8545   15.1067 C   0  0  0  0  0  0  0  0  0  0  0  0
   14.0661   -1.1973   13.8094 C   0  0  0  0  0  0  0  0  0  0  0  0
   15.5457   -0.8190   13.6689 C   0  0  0  0  0  0  0  0  0  0  0  0
   16.4296   -1.9963   13.2448 C   0  0  0  0  0  0  0  0  0  0  0  0
   16.6516   -3.0055   14.2510 N   0  0  0  0  0  0  0  0  0  0  0  0
   17.7553   -3.1157   15.3490 C   0  0  0  0  0  0  0  0  0  0  0  0
   18.6024   -2.3658   15.6504 O   0  0  0  0  0  0  0  0  0  0  0  0
   17.6162   -4.5010   16.0115 C   0  0  0  0  0  0  0  0  0  0  0  0
   16.8408   -4.4974   17.2956 C   0  0  0  0  0  0  0  0  0  0  0  0
   17.3939   -4.6292   18.6144 C   0  0  0  0  0  0  0  0  0  0  0  0
   16.5485   -4.6375   19.6433 N   0  0  0  0  0  0  0  0  0  0  0  0
   15.0164   -4.4074   19.0547 S   0  0  0  0  0  0  0  0  0  0  0  0
   15.4656   -4.4088   17.4064 C   0  0  0  0  0  0  0  0  0  0  0  0
   13.1402    0.0015   14.1387 C   0  0  0  0  0  0  0  0  0  0  0  0
   14.4557   -0.1039   20.6642 H   0  0  0  0  0  0  0  0  0  0  0  0
   14.3517   -0.8825   19.0862 H   0  0  0  0  0  0  0  0  0  0  0  0
   15.9064   -0.7837   19.9259 H   0  0  0  0  0  0  0  0  0  0  0  0
   14.3286    1.6293   18.8696 H   0  0  0  0  0  0  0  0  0  0  0  0
   15.8177    1.7298   19.7961 H   0  0  0  0  0  0  0  0  0  0  0  0
   17.0980    0.5978   18.1063 H   0  0  0  0  0  0  0  0  0  0  0  0
   15.3518    2.6868   16.6913 H   0  0  0  0  0  0  0  0  0  0  0  0
   16.6623    3.0297   17.8033 H   0  0  0  0  0  0  0  0  0  0  0  0
   17.4779    3.2043   15.5248 H   0  0  0  0  0  0  0  0  0  0  0  0
   18.2626    1.8160   16.2940 H   0  0  0  0  0  0  0  0  0  0  0  0
   16.9420    1.5687   15.1352 H   0  0  0  0  0  0  0  0  0  0  0  0
   13.9573    1.2395   16.6454 H   0  0  0  0  0  0  0  0  0  0  0  0
   12.1328   -0.4106   16.0721 H   0  0  0  0  0  0  0  0  0  0  0  0
   14.2304   -2.4126   15.7045 H   0  0  0  0  0  0  0  0  0  0  0  0
   12.6470   -2.5014   14.9289 H   0  0  0  0  0  0  0  0  0  0  0  0
   13.7381   -1.7252   12.9032 H   0  0  0  0  0  0  0  0  0  0  0  0
   15.6213   -0.0635   12.8757 H   0  0  0  0  0  0  0  0  0  0  0  0
   15.9513   -0.3537   14.5598 H   0  0  0  0  0  0  0  0  0  0  0  0
   17.4170   -1.6091   12.9708 H   0  0  0  0  0  0  0  0  0  0  0  0
   16.0070   -2.4978   12.3682 H   0  0  0  0  0  0  0  0  0  0  0  0
   16.1323   -3.8731   14.2047 H   0  0  0  0  0  0  0  0  0  0  0  0
   18.6347   -4.8680   16.1935 H   0  0  0  0  0  0  0  0  0  0  0  0
   17.1726   -5.2197   15.3131 H   0  0  0  0  0  0  0  0  0  0  0  0
   18.4473   -4.7278   18.8466 H   0  0  0  0  0  0  0  0  0  0  0  0
   14.7238   -4.3238   16.6290 H   0  0  0  0  0  0  0  0  0  0  0  0
   13.5458    0.9986   13.9402 H   0  0  0  0  0  0  0  0  0  0  0  0
   12.1564   -0.0645   13.6567 H   0  0  0  0  0  0  0  0  0  0  0  0
  1  2  1  0
  2  3  1  0
  3  4  1  0
  4  5  1  0
  3  6  1  0
  6  7  2  0
  6  8  1  0
  8  9  1  0
  9 10  1  0
 10 11  1  0
 11 12  1  0
 12 13  1  0
 13 14  1  0
 14 15  1  0
 15 16  2  0
 15 17  1  0
 17 18  1  0
 18 19  1  0
 19 20  2  0
 20 21  1  0
 21 22  1  0
 11 23  1  0
 23  9  1  0
 22 18  2  0
  1 24  1  0
  1 25  1  0
  1 26  1  0
  2 27  1  0
  2 28  1  0
  3 29  1  0
  4 30  1  0
  4 31  1  0
  5 32  1  0
  5 33  1  0
  5 34  1  0
  8 35  1  0
  9 36  1  0
 10 37  1  0
 10 38  1  0
 11 39  1  0
 12 40  1  0
 12 41  1  0
 13 42  1  0
 13 43  1  0
 14 44  1  0
 17 45  1  0
 17 46  1  0
 19 47  1  0
 22 48  1  0
 23 49  1  0
 23 50  1  0
M  END
>  <Energy>  (1387) 
39.229079408890541

>  <compound_id>  (1387) 
87622

>  <target_id>  (1387) 
1

>  <reference_id>  (1387) 
97

>  <inspiration_ids>  (1387) 
[97, 27]

>  <energy_score>  (1387) 
-11.745197178032297

>  <distance_score>  (1387) 
2.566892781156451

>  <path>  (1387) 
/opt/xchem-fragalysis-2/maxwin/BulkDock/SCRATCH/511017/C87622-P97/C87622-P97.minimised.mol

>  <scratch_subdir>  (1387) 
/opt/xchem-fragalysis-2/maxwin/BulkDock/SCRATCH/511017/C87622-P97

>  <fragmenstein_runtime>  (1387) 
13.510135173797607

>  <fragmenstein_outcome>  (1387) 
too moved

>  <fragmenstein_mode>  (1387) 
expansion

>  <fragmenstein_error>  (1387) 


$$$$
C87622-P27
     RDKit          3D

 50 51  0  0  0  0  0  0  0  0999 V2000
   15.8794    1.4655   16.7909 C   0  0  0  0  0  0  0  0  0  0  0  0
   15.1866    1.7397   18.1111 C   0  0  0  0  0  0  0  0  0  0  0  0
   14.6526    0.4926   18.8298 C   0  0  0  0  0  0  0  0  0  0  0  0
   15.6140   -0.0110   19.9336 C   0  0  0  0  0  0  0  0  0  0  0  0
   17.0235   -0.3601   19.4746 C   0  0  0  0  0  0  0  0  0  0  0  0
   14.1909   -0.6657   17.9121 C   0  0  0  0  0  0  0  0  0  0  0  0
   14.5972   -1.7503   18.0413 O   0  0  0  0  0  0  0  0  0  0  0  0
   13.1313   -0.0995   16.9283 N   0  0  0  0  0  0  0  0  0  0  0  0
   12.4166   -0.7464   15.8244 C   0  0  0  0  0  0  0  0  0  0  0  0
   12.9946   -2.0711   15.2730 C   0  0  0  0  0  0  0  0  0  0  0  0
   13.7384   -1.2621   14.1730 C   0  0  0  0  0  0  0  0  0  0  0  0
   15.2068   -0.8774   14.3923 C   0  0  0  0  0  0  0  0  0  0  0  0
   16.1815   -1.8422   13.7167 C   0  0  0  0  0  0  0  0  0  0  0  0
   16.5508   -2.9704   14.5324 N   0  0  0  0  0  0  0  0  0  0  0  0
   17.4730   -3.0535   15.7858 C   0  0  0  0  0  0  0  0  0  0  0  0
   18.1316   -2.2333   16.2974 O   0  0  0  0  0  0  0  0  0  0  0  0
   17.4781   -4.5147   16.2730 C   0  0  0  0  0  0  0  0  0  0  0  0
   16.8352   -4.6688   17.6151 C   0  0  0  0  0  0  0  0  0  0  0  0
   17.4851   -5.0672   18.8294 C   0  0  0  0  0  0  0  0  0  0  0  0
   16.7398   -5.1587   19.9286 N   0  0  0  0  0  0  0  0  0  0  0  0
   15.1974   -4.6837   19.5488 S   0  0  0  0  0  0  0  0  0  0  0  0
   15.4980   -4.4562   17.8837 C   0  0  0  0  0  0  0  0  0  0  0  0
   12.7248   -0.1231   14.4513 C   0  0  0  0  0  0  0  0  0  0  0  0
   15.1540    1.3315   15.9886 H   0  0  0  0  0  0  0  0  0  0  0  0
   16.5540    0.6079   16.8395 H   0  0  0  0  0  0  0  0  0  0  0  0
   16.4814    2.3369   16.5092 H   0  0  0  0  0  0  0  0  0  0  0  0
   15.8680    2.2879   18.7732 H   0  0  0  0  0  0  0  0  0  0  0  0
   14.3563    2.4321   17.9206 H   0  0  0  0  0  0  0  0  0  0  0  0
   13.7587    0.8070   19.3752 H   0  0  0  0  0  0  0  0  0  0  0  0
   15.6892    0.7592   20.7120 H   0  0  0  0  0  0  0  0  0  0  0  0
   15.1777   -0.8923   20.4210 H   0  0  0  0  0  0  0  0  0  0  0  0
   17.5993   -0.7589   20.3164 H   0  0  0  0  0  0  0  0  0  0  0  0
   17.0188   -1.1190   18.6882 H   0  0  0  0  0  0  0  0  0  0  0  0
   17.5549    0.5212   19.1044 H   0  0  0  0  0  0  0  0  0  0  0  0
   13.0766    0.9082   17.0319 H   0  0  0  0  0  0  0  0  0  0  0  0
   11.3470   -0.7977   16.0539 H   0  0  0  0  0  0  0  0  0  0  0  0
   13.6232   -2.6649   15.9341 H   0  0  0  0  0  0  0  0  0  0  0  0
   12.2188   -2.7338   14.8678 H   0  0  0  0  0  0  0  0  0  0  0  0
   13.5944   -1.6771   13.1664 H   0  0  0  0  0  0  0  0  0  0  0  0
   15.4387   -0.8147   15.4545 H   0  0  0  0  0  0  0  0  0  0  0  0
   15.3711    0.1100   13.9445 H   0  0  0  0  0  0  0  0  0  0  0  0
   17.1159   -1.3049   13.5204 H   0  0  0  0  0  0  0  0  0  0  0  0
   15.7978   -2.2204   12.7646 H   0  0  0  0  0  0  0  0  0  0  0  0
   16.1895   -3.8938   14.3148 H   0  0  0  0  0  0  0  0  0  0  0  0
   16.9887   -5.1851   15.5593 H   0  0  0  0  0  0  0  0  0  0  0  0
   18.5274   -4.8328   16.3124 H   0  0  0  0  0  0  0  0  0  0  0  0
   18.5365   -5.3056   18.9325 H   0  0  0  0  0  0  0  0  0  0  0  0
   14.7078   -4.1443   17.2188 H   0  0  0  0  0  0  0  0  0  0  0  0
   11.8629   -0.1381   13.7716 H   0  0  0  0  0  0  0  0  0  0  0  0
   13.1247    0.8956   14.4569 H   0  0  0  0  0  0  0  0  0  0  0  0
  1  2  1  0
  2  3  1  0
  3  4  1  0
  4  5  1  0
  3  6  1  0
  6  7  2  0
  6  8  1  0
  8  9  1  0
  9 10  1  0
 10 11  1  0
 11 12  1  0
 12 13  1  0
 13 14  1  0
 14 15  1  0
 15 16  2  0
 15 17  1  0
 17 18  1  0
 18 19  1  0
 19 20  2  0
 20 21  1  0
 21 22  1  0
 11 23  1  0
 23  9  1  0
 22 18  2  0
  1 24  1  0
  1 25  1  0
  1 26  1  0
  2 27  1  0
  2 28  1  0
  3 29  1  0
  4 30  1  0
  4 31  1  0
  5 32  1  0
  5 33  1  0
  5 34  1  0
  8 35  1  0
  9 36  1  0
 10 37  1  0
 10 38  1  0
 11 39  1  0
 12 40  1  0
 12 41  1  0
 13 42  1  0
 13 43  1  0
 14 44  1  0
 17 45  1  0
 17 46  1  0
 19 47  1  0
 22 48  1  0
 23 49  1  0
 23 50  1  0
M  END
>  <Energy>  (1388) 
39.75358141667752

>  <compound_id>  (1388) 
87622

>  <target_id>  (1388) 
1

>  <reference_id>  (1388) 
27

>  <inspiration_ids>  (1388) 
[97, 27]

>  <energy_score>  (1388) 
-11.220695170245754

>  <distance_score>  (1388) 
2.4537517739742003

>  <path>  (1388) 
/opt/xchem-fragalysis-2/maxwin/BulkDock/SCRATCH/511017/C87622-P27/C87622-P27.minimised.mol

>  <scratch_subdir>  (1388) 
/opt/xchem-fragalysis-2/maxwin/BulkDock/SCRATCH/511017/C87622-P27

>  <fragmenstein_runtime>  (1388) 
13.376341342926025

>  <fragmenstein_outcome>  (1388) 
too moved

>  <fragmenstein_mode>  (1388) 
expansion

>  <fragmenstein_error>  (1388) 


$$$$
C80536-P97
     RDKit          3D

 50 51  0  0  0  0  0  0  0  0999 V2000
   14.4215    4.4926   13.3618 C   0  0  0  0  0  0  0  0  0  0  0  0
   13.7543    3.1809   13.7568 C   0  0  0  0  0  0  0  0  0  0  0  0
   12.3089    3.3731   14.2548 C   0  0  0  0  0  0  0  0  0  0  0  0
   11.3062    3.6037   13.1121 C   0  0  0  0  0  0  0  0  0  0  0  0
   10.0264    4.2621   13.6146 C   0  0  0  0  0  0  0  0  0  0  0  0
   11.8665    2.2112   15.1741 C   0  0  0  0  0  0  0  0  0  0  0  0
   11.4669    2.4129   16.2537 O   0  0  0  0  0  0  0  0  0  0  0  0
   12.0644    0.8733   14.4071 N   0  0  0  0  0  0  0  0  0  0  0  0
   11.8985   -0.5071   14.8517 C   0  0  0  0  0  0  0  0  0  0  0  0
   12.6566   -1.5681   14.0250 C   0  0  0  0  0  0  0  0  0  0  0  0
   13.8240   -1.4813   15.0393 C   0  0  0  0  0  0  0  0  0  0  0  0
   15.0314   -0.6058   14.6800 C   0  0  0  0  0  0  0  0  0  0  0  0
   16.0399   -1.3940   13.8372 C   0  0  0  0  0  0  0  0  0  0  0  0
   16.5158   -2.5631   14.5358 N   0  0  0  0  0  0  0  0  0  0  0  0
   17.1119   -2.7125   15.9659 C   0  0  0  0  0  0  0  0  0  0  0  0
   17.3784   -1.9007   16.7633 O   0  0  0  0  0  0  0  0  0  0  0  0
   17.2442   -4.2004   16.2613 C   0  0  0  0  0  0  0  0  0  0  0  0
   16.6639   -4.5558   17.5442 N   0  0  0  0  0  0  0  0  0  0  0  0
   15.5300   -4.0893   18.1389 C   0  0  0  0  0  0  0  0  0  0  0  0
   15.2935   -4.7744   19.2350 N   0  0  0  0  0  0  0  0  0  0  0  0
   16.3393   -5.6525   19.2791 C   0  0  0  0  0  0  0  0  0  0  0  0
   17.1818   -5.5834   18.2462 N   0  0  0  0  0  0  0  0  0  0  0  0
   12.8202   -0.8730   16.0347 C   0  0  0  0  0  0  0  0  0  0  0  0
   15.4551    4.3086   13.0512 H   0  0  0  0  0  0  0  0  0  0  0  0
   14.4429    5.1912   14.2043 H   0  0  0  0  0  0  0  0  0  0  0  0
   13.9032    4.9741   12.5279 H   0  0  0  0  0  0  0  0  0  0  0  0
   14.3576    2.7185   14.5476 H   0  0  0  0  0  0  0  0  0  0  0  0
   13.7839    2.5027   12.8962 H   0  0  0  0  0  0  0  0  0  0  0  0
   12.3115    4.2649   14.8985 H   0  0  0  0  0  0  0  0  0  0  0  0
   11.0497    2.6630   12.6125 H   0  0  0  0  0  0  0  0  0  0  0  0
   11.7407    4.2579   12.3486 H   0  0  0  0  0  0  0  0  0  0  0  0
    9.3354    4.4330   12.7839 H   0  0  0  0  0  0  0  0  0  0  0  0
    9.5213    3.6381   14.3570 H   0  0  0  0  0  0  0  0  0  0  0  0
   10.2412    5.2326   14.0737 H   0  0  0  0  0  0  0  0  0  0  0  0
   12.3534    1.0677   13.4568 H   0  0  0  0  0  0  0  0  0  0  0  0
   10.8411   -0.7354   15.0191 H   0  0  0  0  0  0  0  0  0  0  0  0
   12.1576   -2.5445   14.0114 H   0  0  0  0  0  0  0  0  0  0  0  0
   12.9123   -1.2956   12.9990 H   0  0  0  0  0  0  0  0  0  0  0  0
   14.1421   -2.4696   15.3935 H   0  0  0  0  0  0  0  0  0  0  0  0
   14.7237    0.2868   14.1278 H   0  0  0  0  0  0  0  0  0  0  0  0
   15.5164   -0.2623   15.6011 H   0  0  0  0  0  0  0  0  0  0  0  0
   16.9089   -0.7659   13.6191 H   0  0  0  0  0  0  0  0  0  0  0  0
   15.5957   -1.7282   12.8945 H   0  0  0  0  0  0  0  0  0  0  0  0
   16.3330   -3.4852   14.1451 H   0  0  0  0  0  0  0  0  0  0  0  0
   18.3110   -4.4469   16.2872 H   0  0  0  0  0  0  0  0  0  0  0  0
   16.7517   -4.8348   15.5201 H   0  0  0  0  0  0  0  0  0  0  0  0
   14.9314   -3.2772   17.7505 H   0  0  0  0  0  0  0  0  0  0  0  0
   16.4781   -6.3733   20.0750 H   0  0  0  0  0  0  0  0  0  0  0  0
   13.1931   -0.0482   16.6484 H   0  0  0  0  0  0  0  0  0  0  0  0
   12.3840   -1.6264   16.6986 H   0  0  0  0  0  0  0  0  0  0  0  0
  1  2  1  0
  2  3  1  0
  3  4  1  0
  4  5  1  0
  3  6  1  0
  6  7  2  0
  6  8  1  0
  8  9  1  0
  9 10  1  0
 10 11  1  0
 11 12  1  0
 12 13  1  0
 13 14  1  0
 14 15  1  0
 15 16  2  0
 15 17  1  0
 17 18  1  0
 18 19  1  0
 19 20  2  0
 20 21  1  0
 21 22  2  0
 11 23  1  0
 23  9  1  0
 22 18  1  0
  1 24  1  0
  1 25  1  0
  1 26  1  0
  2 27  1  0
  2 28  1  0
  3 29  1  0
  4 30  1  0
  4 31  1  0
  5 32  1  0
  5 33  1  0
  5 34  1  0
  8 35  1  0
  9 36  1  0
 10 37  1  0
 10 38  1  0
 11 39  1  0
 12 40  1  0
 12 41  1  0
 13 42  1  0
 13 43  1  0
 14 44  1  0
 17 45  1  0
 17 46  1  0
 19 47  1  0
 21 48  1  0
 23 49  1  0
 23 50  1  0
M  END
>  <Energy>  (1389) 
35.615597748984072

>  <compound_id>  (1389) 
80536

>  <target_id>  (1389) 
1

>  <reference_id>  (1389) 
97

>  <inspiration_ids>  (1389) 
[97, 27]

>  <energy_score>  (1389) 
-13.98458464037347

>  <distance_score>  (1389) 
2.347294947702672

>  <path>  (1389) 
/opt/xchem-fragalysis-2/maxwin/BulkDock/SCRATCH/511017/C80536-P97/C80536-P97.minimised.mol

>  <scratch_subdir>  (1389) 
/opt/xchem-fragalysis-2/maxwin/BulkDock/SCRATCH/511017/C80536-P97

>  <fragmenstein_runtime>  (1389) 
171.62010145187378

>  <fragmenstein_outcome>  (1389) 
too moved

>  <fragmenstein_mode>  (1389) 
expansion

>  <fragmenstein_error>  (1389) 


$$$$
C80536-P27
     RDKit          3D

 50 51  0  0  0  0  0  0  0  0999 V2000
   12.7841    4.1684   16.9823 C   0  0  0  0  0  0  0  0  0  0  0  0
   11.7092    4.4635   15.9418 C   0  0  0  0  0  0  0  0  0  0  0  0
   11.6522    3.3763   14.8550 C   0  0  0  0  0  0  0  0  0  0  0  0
   10.8803    3.8128   13.5972 C   0  0  0  0  0  0  0  0  0  0  0  0
    9.5524    4.5067   13.8731 C   0  0  0  0  0  0  0  0  0  0  0  0
   11.0495    2.0613   15.4047 C   0  0  0  0  0  0  0  0  0  0  0  0
   10.2151    2.0299   16.2225 O   0  0  0  0  0  0  0  0  0  0  0  0
   11.8124    0.9025   14.6974 N   0  0  0  0  0  0  0  0  0  0  0  0
   11.7684   -0.5420   14.9259 C   0  0  0  0  0  0  0  0  0  0  0  0
   12.7394   -1.3669   14.0547 C   0  0  0  0  0  0  0  0  0  0  0  0
   13.7921   -1.2814   15.1949 C   0  0  0  0  0  0  0  0  0  0  0  0
   14.9005   -0.2302   15.0468 C   0  0  0  0  0  0  0  0  0  0  0  0
   15.6841   -0.0186   16.3420 C   0  0  0  0  0  0  0  0  0  0  0  0
   16.3442   -1.1932   16.8579 N   0  0  0  0  0  0  0  0  0  0  0  0
   16.9837   -2.4014   16.1139 C   0  0  0  0  0  0  0  0  0  0  0  0
   17.0038   -2.6645   14.9758 O   0  0  0  0  0  0  0  0  0  0  0  0
   17.6602   -3.2784   17.1492 C   0  0  0  0  0  0  0  0  0  0  0  0
   16.7643   -4.1151   17.9198 N   0  0  0  0  0  0  0  0  0  0  0  0
   15.4067   -4.1369   17.9941 C   0  0  0  0  0  0  0  0  0  0  0  0
   15.0287   -5.0069   18.9051 N   0  0  0  0  0  0  0  0  0  0  0  0
   16.2140   -5.4993   19.3729 C   0  0  0  0  0  0  0  0  0  0  0  0
   17.3020   -4.9805   18.8041 N   0  0  0  0  0  0  0  0  0  0  0  0
   12.6095   -0.9844   16.1471 C   0  0  0  0  0  0  0  0  0  0  0  0
   12.7872    4.9463   17.7523 H   0  0  0  0  0  0  0  0  0  0  0  0
   13.7770    4.1464   16.5214 H   0  0  0  0  0  0  0  0  0  0  0  0
   12.6163    3.2050   17.4727 H   0  0  0  0  0  0  0  0  0  0  0  0
   11.9379    5.4329   15.4828 H   0  0  0  0  0  0  0  0  0  0  0  0
   10.7435    4.5641   16.4507 H   0  0  0  0  0  0  0  0  0  0  0  0
   12.6878    3.1854   14.5451 H   0  0  0  0  0  0  0  0  0  0  0  0
   10.7001    2.9427   12.9550 H   0  0  0  0  0  0  0  0  0  0  0  0
   11.5082    4.5012   13.0179 H   0  0  0  0  0  0  0  0  0  0  0  0
    9.0073    4.6604   12.9365 H   0  0  0  0  0  0  0  0  0  0  0  0
    8.9208    3.9183   14.5433 H   0  0  0  0  0  0  0  0  0  0  0  0
    9.7058    5.4910   14.3262 H   0  0  0  0  0  0  0  0  0  0  0  0
   12.5320    1.2875   14.0968 H   0  0  0  0  0  0  0  0  0  0  0  0
   10.7368   -0.9068   14.9307 H   0  0  0  0  0  0  0  0  0  0  0  0
   12.3832   -2.3858   13.8599 H   0  0  0  0  0  0  0  0  0  0  0  0
   13.0369   -0.9195   13.1022 H   0  0  0  0  0  0  0  0  0  0  0  0
   14.2386   -2.2641   15.3881 H   0  0  0  0  0  0  0  0  0  0  0  0
   15.5814   -0.5407   14.2458 H   0  0  0  0  0  0  0  0  0  0  0  0
   14.4889    0.7357   14.7399 H   0  0  0  0  0  0  0  0  0  0  0  0
   16.4653    0.7302   16.1741 H   0  0  0  0  0  0  0  0  0  0  0  0
   15.0335    0.3561   17.1381 H   0  0  0  0  0  0  0  0  0  0  0  0
   16.5875   -1.2337   17.8435 H   0  0  0  0  0  0  0  0  0  0  0  0
   18.2329   -2.6629   17.8514 H   0  0  0  0  0  0  0  0  0  0  0  0
   18.3626   -3.9445   16.6346 H   0  0  0  0  0  0  0  0  0  0  0  0
   14.7492   -3.5290   17.3886 H   0  0  0  0  0  0  0  0  0  0  0  0
   16.2828   -6.2552   20.1452 H   0  0  0  0  0  0  0  0  0  0  0  0
   12.7796   -0.2265   16.9158 H   0  0  0  0  0  0  0  0  0  0  0  0
   12.2183   -1.8850   16.6355 H   0  0  0  0  0  0  0  0  0  0  0  0
  1  2  1  0
  2  3  1  0
  3  4  1  0
  4  5  1  0
  3  6  1  0
  6  7  2  0
  6  8  1  0
  8  9  1  0
  9 10  1  0
 10 11  1  0
 11 12  1  0
 12 13  1  0
 13 14  1  0
 14 15  1  0
 15 16  2  0
 15 17  1  0
 17 18  1  0
 18 19  1  0
 19 20  2  0
 20 21  1  0
 21 22  2  0
 11 23  1  0
 23  9  1  0
 22 18  1  0
  1 24  1  0
  1 25  1  0
  1 26  1  0
  2 27  1  0
  2 28  1  0
  3 29  1  0
  4 30  1  0
  4 31  1  0
  5 32  1  0
  5 33  1  0
  5 34  1  0
  8 35  1  0
  9 36  1  0
 10 37  1  0
 10 38  1  0
 11 39  1  0
 12 40  1  0
 12 41  1  0
 13 42  1  0
 13 43  1  0
 14 44  1  0
 17 45  1  0
 17 46  1  0
 19 47  1  0
 21 48  1  0
 23 49  1  0
 23 50  1  0
M  END
>  <Energy>  (1390) 
35.026616491604905

>  <compound_id>  (1390) 
80536

>  <target_id>  (1390) 
1

>  <reference_id>  (1390) 
27

>  <inspiration_ids>  (1390) 
[97, 27]

>  <energy_score>  (1390) 
-14.573565897751209

>  <distance_score>  (1390) 
2.4389656631103507

>  <path>  (1390) 
/opt/xchem-fragalysis-2/maxwin/BulkDock/SCRATCH/511017/C80536-P27/C80536-P27.minimised.mol

>  <scratch_subdir>  (1390) 
/opt/xchem-fragalysis-2/maxwin/BulkDock/SCRATCH/511017/C80536-P27

>  <fragmenstein_runtime>  (1390) 
174.24374055862427

>  <fragmenstein_outcome>  (1390) 
too moved

>  <fragmenstein_mode>  (1390) 
expansion

>  <fragmenstein_error>  (1390) 


$$$$
C87623-P97
     RDKit          3D

 49 50  0  0  0  0  0  0  0  0999 V2000
    9.1415   -0.4549   15.1914 C   0  0  0  0  0  0  0  0  0  0  0  0
   10.0200    0.5929   15.8342 C   0  0  0  0  0  0  0  0  0  0  0  0
   10.6697    1.5968   14.8816 C   0  0  0  0  0  0  0  0  0  0  0  0
   11.5741    2.6053   15.6267 C   0  0  0  0  0  0  0  0  0  0  0  0
   12.8997    2.1487   16.1968 C   0  0  0  0  0  0  0  0  0  0  0  0
   11.3495    0.9879   13.6482 C   0  0  0  0  0  0  0  0  0  0  0  0
   11.1318    1.3704   12.5650 O   0  0  0  0  0  0  0  0  0  0  0  0
   12.3677   -0.0670   14.1563 N   0  0  0  0  0  0  0  0  0  0  0  0
   13.3961   -0.8011   13.4460 C   0  0  0  0  0  0  0  0  0  0  0  0
   14.2420   -1.6968   14.3721 C   0  0  0  0  0  0  0  0  0  0  0  0
   15.1026   -0.4282   14.6747 C   0  0  0  0  0  0  0  0  0  0  0  0
   16.6091   -0.5107   14.8366 C   0  0  0  0  0  0  0  0  0  0  0  0
   17.0191   -0.8707   16.2611 C   0  0  0  0  0  0  0  0  0  0  0  0
   16.4660   -2.1336   16.6626 N   0  0  0  0  0  0  0  0  0  0  0  0
   15.1049   -2.4716   17.3321 C   0  0  0  0  0  0  0  0  0  0  0  0
   14.2606   -1.7672   17.7286 O   0  0  0  0  0  0  0  0  0  0  0  0
   14.9483   -3.9766   17.3146 C   0  0  0  0  0  0  0  0  0  0  0  0
   15.6937   -4.5680   18.3867 N   0  0  0  0  0  0  0  0  0  0  0  0
   15.0995   -5.0347   19.4980 N   0  0  0  0  0  0  0  0  0  0  0  0
   16.1652   -5.5457   20.1238 C   0  0  0  0  0  0  0  0  0  0  0  0
   17.3209   -5.4514   19.4058 N   0  0  0  0  0  0  0  0  0  0  0  0
   17.0045   -4.8455   18.2691 N   0  0  0  0  0  0  0  0  0  0  0  0
   14.6656    0.0502   13.2656 C   0  0  0  0  0  0  0  0  0  0  0  0
    9.7270   -1.3567   14.9917 H   0  0  0  0  0  0  0  0  0  0  0  0
    8.7022   -0.0992   14.2613 H   0  0  0  0  0  0  0  0  0  0  0  0
    8.3345   -0.7469   15.8676 H   0  0  0  0  0  0  0  0  0  0  0  0
    9.4231    1.1485   16.5648 H   0  0  0  0  0  0  0  0  0  0  0  0
   10.7856    0.0469   16.3750 H   0  0  0  0  0  0  0  0  0  0  0  0
    9.8486    2.1990   14.4743 H   0  0  0  0  0  0  0  0  0  0  0  0
   11.7835    3.4400   14.9441 H   0  0  0  0  0  0  0  0  0  0  0  0
   10.9866    3.0379   16.4476 H   0  0  0  0  0  0  0  0  0  0  0  0
   13.6377    2.0531   15.3982 H   0  0  0  0  0  0  0  0  0  0  0  0
   13.2862    2.9041   16.8896 H   0  0  0  0  0  0  0  0  0  0  0  0
   12.8251    1.2077   16.7433 H   0  0  0  0  0  0  0  0  0  0  0  0
   12.2346   -0.2149   15.1456 H   0  0  0  0  0  0  0  0  0  0  0  0
   13.0336   -1.3203   12.5654 H   0  0  0  0  0  0  0  0  0  0  0  0
   14.8072   -2.4666   13.8379 H   0  0  0  0  0  0  0  0  0  0  0  0
   13.6887   -2.1549   15.1914 H   0  0  0  0  0  0  0  0  0  0  0  0
   14.6772    0.1748   15.4836 H   0  0  0  0  0  0  0  0  0  0  0  0
   17.0581    0.4589   14.5892 H   0  0  0  0  0  0  0  0  0  0  0  0
   17.0261   -1.2436   14.1347 H   0  0  0  0  0  0  0  0  0  0  0  0
   16.6548   -0.1126   16.9621 H   0  0  0  0  0  0  0  0  0  0  0  0
   18.1077   -0.9383   16.3439 H   0  0  0  0  0  0  0  0  0  0  0  0
   16.9215   -2.9933   16.3652 H   0  0  0  0  0  0  0  0  0  0  0  0
   15.2861   -4.4021   16.3646 H   0  0  0  0  0  0  0  0  0  0  0  0
   13.8895   -4.2319   17.4336 H   0  0  0  0  0  0  0  0  0  0  0  0
   16.0994   -6.0000   21.1023 H   0  0  0  0  0  0  0  0  0  0  0  0
   14.5234    1.1294   13.1555 H   0  0  0  0  0  0  0  0  0  0  0  0
   15.3058   -0.2947   12.4435 H   0  0  0  0  0  0  0  0  0  0  0  0
  1  2  1  0
  2  3  1  0
  3  4  1  0
  4  5  1  0
  3  6  1  0
  6  7  2  0
  6  8  1  0
  8  9  1  0
  9 10  1  0
 10 11  1  0
 11 12  1  0
 12 13  1  0
 13 14  1  0
 14 15  1  0
 15 16  2  0
 15 17  1  0
 17 18  1  0
 18 19  1  0
 19 20  2  0
 20 21  1  0
 21 22  2  0
 11 23  1  0
 23  9  1  0
 22 18  1  0
  1 24  1  0
  1 25  1  0
  1 26  1  0
  2 27  1  0
  2 28  1  0
  3 29  1  0
  4 30  1  0
  4 31  1  0
  5 32  1  0
  5 33  1  0
  5 34  1  0
  8 35  1  0
  9 36  1  0
 10 37  1  0
 10 38  1  0
 11 39  1  0
 12 40  1  0
 12 41  1  0
 13 42  1  0
 13 43  1  0
 14 44  1  0
 17 45  1  0
 17 46  1  0
 20 47  1  0
 23 48  1  0
 23 49  1  0
M  END
>  <Energy>  (1391) 
38.346263701981044

>  <compound_id>  (1391) 
87623

>  <target_id>  (1391) 
1

>  <reference_id>  (1391) 
97

>  <inspiration_ids>  (1391) 
[97, 27]

>  <energy_score>  (1391) 
-9.515775178753586

>  <distance_score>  (1391) 
2.9281270640881174

>  <path>  (1391) 
/opt/xchem-fragalysis-2/maxwin/BulkDock/SCRATCH/511017/C87623-P97/C87623-P97.minimised.mol

>  <scratch_subdir>  (1391) 
/opt/xchem-fragalysis-2/maxwin/BulkDock/SCRATCH/511017/C87623-P97

>  <fragmenstein_runtime>  (1391) 
169.6218981742859

>  <fragmenstein_outcome>  (1391) 
too moved

>  <fragmenstein_mode>  (1391) 
expansion

>  <fragmenstein_error>  (1391) 


$$$$
C87623-P27
     RDKit          3D

 49 50  0  0  0  0  0  0  0  0999 V2000
    9.9874    4.2847   16.3067 C   0  0  0  0  0  0  0  0  0  0  0  0
   10.2751    2.8330   15.9494 C   0  0  0  0  0  0  0  0  0  0  0  0
   11.3860    2.6974   14.9039 C   0  0  0  0  0  0  0  0  0  0  0  0
   12.8385    2.9328   15.3895 C   0  0  0  0  0  0  0  0  0  0  0  0
   13.1653    2.7253   16.8626 C   0  0  0  0  0  0  0  0  0  0  0  0
   11.2341    1.3840   14.1109 C   0  0  0  0  0  0  0  0  0  0  0  0
   10.8597    1.3651   13.0026 O   0  0  0  0  0  0  0  0  0  0  0  0
   11.7161    0.2275   15.0310 N   0  0  0  0  0  0  0  0  0  0  0  0
   11.9280   -1.1873   14.7425 C   0  0  0  0  0  0  0  0  0  0  0  0
   12.6667   -1.9377   15.8701 C   0  0  0  0  0  0  0  0  0  0  0  0
   14.0112   -1.6577   15.1348 C   0  0  0  0  0  0  0  0  0  0  0  0
   14.8331   -0.4401   15.5809 C   0  0  0  0  0  0  0  0  0  0  0  0
   16.3207   -0.6391   15.3122 C   0  0  0  0  0  0  0  0  0  0  0  0
   16.9047   -1.5773   16.2393 N   0  0  0  0  0  0  0  0  0  0  0  0
   17.5231   -2.9829   15.9973 C   0  0  0  0  0  0  0  0  0  0  0  0
   17.7228   -3.5604   15.0017 O   0  0  0  0  0  0  0  0  0  0  0  0
   17.9599   -3.5299   17.3389 C   0  0  0  0  0  0  0  0  0  0  0  0
   16.8622   -4.1518   18.0376 N   0  0  0  0  0  0  0  0  0  0  0  0
   15.9276   -3.4165   18.6910 N   0  0  0  0  0  0  0  0  0  0  0  0
   15.4045   -4.3648   19.4787 C   0  0  0  0  0  0  0  0  0  0  0  0
   15.9797   -5.5886   19.3251 N   0  0  0  0  0  0  0  0  0  0  0  0
   16.9218   -5.4449   18.4047 N   0  0  0  0  0  0  0  0  0  0  0  0
   13.1622   -1.4631   13.8519 C   0  0  0  0  0  0  0  0  0  0  0  0
    9.1822    4.3389   17.0460 H   0  0  0  0  0  0  0  0  0  0  0  0
    9.6671    4.8470   15.4235 H   0  0  0  0  0  0  0  0  0  0  0  0
   10.8667    4.7811   16.7259 H   0  0  0  0  0  0  0  0  0  0  0  0
   10.5190    2.2691   16.8510 H   0  0  0  0  0  0  0  0  0  0  0  0
    9.3480    2.3900   15.5686 H   0  0  0  0  0  0  0  0  0  0  0  0
   11.2048    3.4685   14.1384 H   0  0  0  0  0  0  0  0  0  0  0  0
   13.5364    2.3587   14.7721 H   0  0  0  0  0  0  0  0  0  0  0  0
   13.0775    3.9840   15.1747 H   0  0  0  0  0  0  0  0  0  0  0  0
   12.9575    1.7136   17.2127 H   0  0  0  0  0  0  0  0  0  0  0  0
   14.2321    2.9117   17.0289 H   0  0  0  0  0  0  0  0  0  0  0  0
   12.6176    3.4282   17.4949 H   0  0  0  0  0  0  0  0  0  0  0  0
   12.0464    0.6073   15.9043 H   0  0  0  0  0  0  0  0  0  0  0  0
   11.0026   -1.6720   14.4287 H   0  0  0  0  0  0  0  0  0  0  0  0
   12.4106   -3.0036   15.9190 H   0  0  0  0  0  0  0  0  0  0  0  0
   12.5773   -1.5210   16.8767 H   0  0  0  0  0  0  0  0  0  0  0  0
   14.6320   -2.5605   15.1110 H   0  0  0  0  0  0  0  0  0  0  0  0
   14.6787   -0.2590   16.6514 H   0  0  0  0  0  0  0  0  0  0  0  0
   14.5044    0.4541   15.0486 H   0  0  0  0  0  0  0  0  0  0  0  0
   16.5002   -0.9971   14.2936 H   0  0  0  0  0  0  0  0  0  0  0  0
   16.8516    0.3075   15.4526 H   0  0  0  0  0  0  0  0  0  0  0  0
   16.8016   -1.4186   17.2389 H   0  0  0  0  0  0  0  0  0  0  0  0
   18.3770   -2.7423   17.9748 H   0  0  0  0  0  0  0  0  0  0  0  0
   18.7455   -4.2769   17.1799 H   0  0  0  0  0  0  0  0  0  0  0  0
   14.5970   -4.1605   20.1686 H   0  0  0  0  0  0  0  0  0  0  0  0
   13.4713   -0.6540   13.1831 H   0  0  0  0  0  0  0  0  0  0  0  0
   13.0577   -2.3723   13.2484 H   0  0  0  0  0  0  0  0  0  0  0  0
  1  2  1  0
  2  3  1  0
  3  4  1  0
  4  5  1  0
  3  6  1  0
  6  7  2  0
  6  8  1  0
  8  9  1  0
  9 10  1  0
 10 11  1  0
 11 12  1  0
 12 13  1  0
 13 14  1  0
 14 15  1  0
 15 16  2  0
 15 17  1  0
 17 18  1  0
 18 19  1  0
 19 20  2  0
 20 21  1  0
 21 22  2  0
 11 23  1  0
 23  9  1  0
 22 18  1  0
  1 24  1  0
  1 25  1  0
  1 26  1  0
  2 27  1  0
  2 28  1  0
  3 29  1  0
  4 30  1  0
  4 31  1  0
  5 32  1  0
  5 33  1  0
  5 34  1  0
  8 35  1  0
  9 36  1  0
 10 37  1  0
 10 38  1  0
 11 39  1  0
 12 40  1  0
 12 41  1  0
 13 42  1  0
 13 43  1  0
 14 44  1  0
 17 45  1  0
 17 46  1  0
 20 47  1  0
 23 48  1  0
 23 49  1  0
M  END
>  <Energy>  (1392) 
38.163268197294165

>  <compound_id>  (1392) 
87623

>  <target_id>  (1392) 
1

>  <reference_id>  (1392) 
27

>  <inspiration_ids>  (1392) 
[97, 27]

>  <energy_score>  (1392) 
-9.698770683438802

>  <distance_score>  (1392) 
2.11720053683822

>  <path>  (1392) 
/opt/xchem-fragalysis-2/maxwin/BulkDock/SCRATCH/511017/C87623-P27/C87623-P27.minimised.mol

>  <scratch_subdir>  (1392) 
/opt/xchem-fragalysis-2/maxwin/BulkDock/SCRATCH/511017/C87623-P27

>  <fragmenstein_runtime>  (1392) 
169.17112851142883

>  <fragmenstein_outcome>  (1392) 
too moved

>  <fragmenstein_mode>  (1392) 
expansion

>  <fragmenstein_error>  (1392) 


$$$$
C87624-P97
     RDKit          3D

 54 55  0  0  0  0  0  0  0  0999 V2000
   12.4149    0.9444   15.6983 C   0  0  0  0  0  0  0  0  0  0  0  0
   13.5881    0.3130   16.4175 C   0  0  0  0  0  0  0  0  0  0  0  0
   13.5583   -1.2228   16.5664 C   0  0  0  0  0  0  0  0  0  0  0  0
   13.1948   -1.9882   15.2884 C   0  0  0  0  0  0  0  0  0  0  0  0
   11.7384   -2.4341   15.2213 C   0  0  0  0  0  0  0  0  0  0  0  0
   14.9178   -1.6473   17.1938 C   0  0  0  0  0  0  0  0  0  0  0  0
   15.8144   -0.9013   17.2572 O   0  0  0  0  0  0  0  0  0  0  0  0
   14.7687   -3.0918   17.7495 N   0  0  0  0  0  0  0  0  0  0  0  0
   15.6720   -3.8872   18.5910 C   0  0  0  0  0  0  0  0  0  0  0  0
   17.0848   -3.9728   18.0345 C   0  0  0  0  0  0  0  0  0  0  0  0
   17.1930   -4.7875   16.7447 C   0  0  0  0  0  0  0  0  0  0  0  0
   17.1582   -3.9756   15.5579 N   0  0  0  0  0  0  0  0  0  0  0  0
   18.1799   -2.9398   15.0148 C   0  0  0  0  0  0  0  0  0  0  0  0
   19.1667   -2.5322   15.4865 O   0  0  0  0  0  0  0  0  0  0  0  0
   17.6417   -2.4618   13.6741 C   0  0  0  0  0  0  0  0  0  0  0  0
   16.4569   -1.5198   13.8070 C   0  0  0  0  0  0  0  0  0  0  0  0
   16.7671   -0.0219   14.0498 C   0  0  0  0  0  0  0  0  0  0  0  0
   15.5383    0.2800   13.1699 C   0  0  0  0  0  0  0  0  0  0  0  0
   15.7874   -1.0760   12.4826 C   0  0  0  0  0  0  0  0  0  0  0  0
   15.6659   -3.3542   20.0498 C   0  0  0  0  0  0  0  0  0  0  0  0
   15.7145   -4.8140   20.5273 C   0  0  0  0  0  0  0  0  0  0  0  0
   15.1098   -5.2051   19.1730 C   0  0  0  0  0  0  0  0  0  0  0  0
   12.4573    2.0342   15.7938 H   0  0  0  0  0  0  0  0  0  0  0  0
   12.4285    0.7117   14.6295 H   0  0  0  0  0  0  0  0  0  0  0  0
   11.4547    0.6090   16.0933 H   0  0  0  0  0  0  0  0  0  0  0  0
   14.4988    0.6319   15.9020 H   0  0  0  0  0  0  0  0  0  0  0  0
   13.6604    0.7576   17.4181 H   0  0  0  0  0  0  0  0  0  0  0  0
   12.7965   -1.4556   17.3009 H   0  0  0  0  0  0  0  0  0  0  0  0
   13.8112   -2.8864   15.2266 H   0  0  0  0  0  0  0  0  0  0  0  0
   13.4150   -1.3985   14.3965 H   0  0  0  0  0  0  0  0  0  0  0  0
   11.5444   -2.9371   14.2687 H   0  0  0  0  0  0  0  0  0  0  0  0
   11.5190   -3.1466   16.0214 H   0  0  0  0  0  0  0  0  0  0  0  0
   11.0494   -1.5903   15.3061 H   0  0  0  0  0  0  0  0  0  0  0  0
   13.8235   -3.4225   17.5852 H   0  0  0  0  0  0  0  0  0  0  0  0
   17.7391   -4.4612   18.7687 H   0  0  0  0  0  0  0  0  0  0  0  0
   17.5070   -2.9698   17.8963 H   0  0  0  0  0  0  0  0  0  0  0  0
   16.4136   -5.5482   16.6548 H   0  0  0  0  0  0  0  0  0  0  0  0
   18.1672   -5.2883   16.7285 H   0  0  0  0  0  0  0  0  0  0  0  0
   16.3684   -4.0365   14.9251 H   0  0  0  0  0  0  0  0  0  0  0  0
   17.3689   -3.3394   13.0816 H   0  0  0  0  0  0  0  0  0  0  0  0
   18.4648   -1.9832   13.1292 H   0  0  0  0  0  0  0  0  0  0  0  0
   15.7197   -1.9126   14.5093 H   0  0  0  0  0  0  0  0  0  0  0  0
   17.7119    0.3242   13.6136 H   0  0  0  0  0  0  0  0  0  0  0  0
   16.7145    0.3242   15.0832 H   0  0  0  0  0  0  0  0  0  0  0  0
   14.5880    0.3438   13.6989 H   0  0  0  0  0  0  0  0  0  0  0  0
   15.6307    1.1566   12.5227 H   0  0  0  0  0  0  0  0  0  0  0  0
   16.4670   -1.0176   11.6243 H   0  0  0  0  0  0  0  0  0  0  0  0
   14.8927   -1.6325   12.1914 H   0  0  0  0  0  0  0  0  0  0  0  0
   16.5152   -2.7339   20.3519 H   0  0  0  0  0  0  0  0  0  0  0  0
   14.7433   -2.8374   20.3448 H   0  0  0  0  0  0  0  0  0  0  0  0
   16.7252   -5.1998   20.6997 H   0  0  0  0  0  0  0  0  0  0  0  0
   15.1000   -5.0447   21.4017 H   0  0  0  0  0  0  0  0  0  0  0  0
   15.5178   -6.1350   18.7736 H   0  0  0  0  0  0  0  0  0  0  0  0
   14.0154   -5.2563   19.1876 H   0  0  0  0  0  0  0  0  0  0  0  0
  1  2  1  0
  2  3  1  0
  3  4  1  0
  4  5  1  0
  3  6  1  0
  6  7  2  0
  6  8  1  0
  8  9  1  0
  9 10  1  0
 10 11  1  0
 11 12  1  0
 12 13  1  0
 13 14  2  0
 13 15  1  0
 15 16  1  0
 16 17  1  0
 17 18  1  0
 18 19  1  0
  9 20  1  0
 20 21  1  0
 21 22  1  0
 22  9  1  0
 19 16  1  0
  1 23  1  0
  1 24  1  0
  1 25  1  0
  2 26  1  0
  2 27  1  0
  3 28  1  0
  4 29  1  0
  4 30  1  0
  5 31  1  0
  5 32  1  0
  5 33  1  0
  8 34  1  0
 10 35  1  0
 10 36  1  0
 11 37  1  0
 11 38  1  0
 12 39  1  0
 15 40  1  0
 15 41  1  0
 16 42  1  0
 17 43  1  0
 17 44  1  0
 18 45  1  0
 18 46  1  0
 19 47  1  0
 19 48  1  0
 20 49  1  0
 20 50  1  0
 21 51  1  0
 21 52  1  0
 22 53  1  0
 22 54  1  0
M  END
>  <Energy>  (1393) 
34.792789362293362

>  <compound_id>  (1393) 
87624

>  <target_id>  (1393) 
1

>  <reference_id>  (1393) 
97

>  <inspiration_ids>  (1393) 
[97, 27]

>  <energy_score>  (1393) 
-6.130687104438586

>  <distance_score>  (1393) 
2.788184499144293

>  <path>  (1393) 
/opt/xchem-fragalysis-2/maxwin/BulkDock/SCRATCH/511017/C87624-P97/C87624-P97.minimised.mol

>  <scratch_subdir>  (1393) 
/opt/xchem-fragalysis-2/maxwin/BulkDock/SCRATCH/511017/C87624-P97

>  <fragmenstein_runtime>  (1393) 
7.346782684326172

>  <fragmenstein_outcome>  (1393) 
too moved

>  <fragmenstein_mode>  (1393) 
expansion

>  <fragmenstein_error>  (1393) 


$$$$
C87624-P27
     RDKit          3D

 54 55  0  0  0  0  0  0  0  0999 V2000
   13.2098    1.2758   16.4112 C   0  0  0  0  0  0  0  0  0  0  0  0
   13.6502    0.0179   17.1407 C   0  0  0  0  0  0  0  0  0  0  0  0
   13.0846   -1.3327   16.6447 C   0  0  0  0  0  0  0  0  0  0  0  0
   12.3231   -1.2648   15.3018 C   0  0  0  0  0  0  0  0  0  0  0  0
   11.5553   -2.5452   14.9915 C   0  0  0  0  0  0  0  0  0  0  0  0
   14.2333   -2.3553   16.5660 C   0  0  0  0  0  0  0  0  0  0  0  0
   14.5867   -2.7876   15.5397 O   0  0  0  0  0  0  0  0  0  0  0  0
   14.7990   -2.5735   18.0010 N   0  0  0  0  0  0  0  0  0  0  0  0
   15.8754   -3.4601   18.4809 C   0  0  0  0  0  0  0  0  0  0  0  0
   15.9685   -4.7385   17.6568 C   0  0  0  0  0  0  0  0  0  0  0  0
   17.1214   -4.7801   16.6448 C   0  0  0  0  0  0  0  0  0  0  0  0
   16.9751   -3.8618   15.5524 N   0  0  0  0  0  0  0  0  0  0  0  0
   18.0396   -3.2065   14.6417 C   0  0  0  0  0  0  0  0  0  0  0  0
   19.2050   -3.2515   14.6873 O   0  0  0  0  0  0  0  0  0  0  0  0
   17.2990   -2.3848   13.5828 C   0  0  0  0  0  0  0  0  0  0  0  0
   17.3328   -0.8569   13.7377 C   0  0  0  0  0  0  0  0  0  0  0  0
   16.1139   -0.1694   14.3980 C   0  0  0  0  0  0  0  0  0  0  0  0
   16.8911   -0.2147   15.7266 C   0  0  0  0  0  0  0  0  0  0  0  0
   18.1766   -0.2048   14.8743 C   0  0  0  0  0  0  0  0  0  0  0  0
   17.1786   -2.6976   18.8549 C   0  0  0  0  0  0  0  0  0  0  0  0
   17.3180   -3.6683   20.0440 C   0  0  0  0  0  0  0  0  0  0  0  0
   15.7799   -3.7921   20.0063 C   0  0  0  0  0  0  0  0  0  0  0  0
   12.1271    1.4177   16.4661 H   0  0  0  0  0  0  0  0  0  0  0  0
   13.6780    2.1539   16.8688 H   0  0  0  0  0  0  0  0  0  0  0  0
   13.5104    1.2548   15.3596 H   0  0  0  0  0  0  0  0  0  0  0  0
   14.7410    0.0020   17.1357 H   0  0  0  0  0  0  0  0  0  0  0  0
   13.3957    0.1364   18.1987 H   0  0  0  0  0  0  0  0  0  0  0  0
   12.3836   -1.7300   17.3756 H   0  0  0  0  0  0  0  0  0  0  0  0
   11.5916   -0.4499   15.3105 H   0  0  0  0  0  0  0  0  0  0  0  0
   13.0141   -1.0629   14.4775 H   0  0  0  0  0  0  0  0  0  0  0  0
   12.0743   -3.4448   15.3282 H   0  0  0  0  0  0  0  0  0  0  0  0
   10.5783   -2.5208   15.4761 H   0  0  0  0  0  0  0  0  0  0  0  0
   11.3949   -2.6363   13.9147 H   0  0  0  0  0  0  0  0  0  0  0  0
   14.3016   -1.9799   18.6555 H   0  0  0  0  0  0  0  0  0  0  0  0
   16.1080   -5.6054   18.3146 H   0  0  0  0  0  0  0  0  0  0  0  0
   15.0241   -4.8985   17.1296 H   0  0  0  0  0  0  0  0  0  0  0  0
   18.0979   -4.6199   17.1100 H   0  0  0  0  0  0  0  0  0  0  0  0
   17.1607   -5.7762   16.1907 H   0  0  0  0  0  0  0  0  0  0  0  0
   16.0441   -3.5438   15.2730 H   0  0  0  0  0  0  0  0  0  0  0  0
   16.2669   -2.7234   13.4539 H   0  0  0  0  0  0  0  0  0  0  0  0
   17.7894   -2.6455   12.6341 H   0  0  0  0  0  0  0  0  0  0  0  0
   17.5504   -0.4204   12.7528 H   0  0  0  0  0  0  0  0  0  0  0  0
   15.1734   -0.7101   14.3475 H   0  0  0  0  0  0  0  0  0  0  0  0
   15.9377    0.8508   14.0338 H   0  0  0  0  0  0  0  0  0  0  0  0
   16.7725    0.6521   16.3812 H   0  0  0  0  0  0  0  0  0  0  0  0
   16.7632   -1.1270   16.3119 H   0  0  0  0  0  0  0  0  0  0  0  0
   18.5271    0.8058   14.6280 H   0  0  0  0  0  0  0  0  0  0  0  0
   19.0225   -0.7632   15.2783 H   0  0  0  0  0  0  0  0  0  0  0  0
   18.0053   -2.6959   18.1422 H   0  0  0  0  0  0  0  0  0  0  0  0
   17.0149   -1.6566   19.1655 H   0  0  0  0  0  0  0  0  0  0  0  0
   17.8542   -4.5951   19.8115 H   0  0  0  0  0  0  0  0  0  0  0  0
   17.7362   -3.2400   20.9584 H   0  0  0  0  0  0  0  0  0  0  0  0
   15.3759   -4.7691   20.2867 H   0  0  0  0  0  0  0  0  0  0  0  0
   15.2680   -3.0293   20.6074 H   0  0  0  0  0  0  0  0  0  0  0  0
  1  2  1  0
  2  3  1  0
  3  4  1  0
  4  5  1  0
  3  6  1  0
  6  7  2  0
  6  8  1  0
  8  9  1  0
  9 10  1  0
 10 11  1  0
 11 12  1  0
 12 13  1  0
 13 14  2  0
 13 15  1  0
 15 16  1  0
 16 17  1  0
 17 18  1  0
 18 19  1  0
  9 20  1  0
 20 21  1  0
 21 22  1  0
 22  9  1  0
 19 16  1  0
  1 23  1  0
  1 24  1  0
  1 25  1  0
  2 26  1  0
  2 27  1  0
  3 28  1  0
  4 29  1  0
  4 30  1  0
  5 31  1  0
  5 32  1  0
  5 33  1  0
  8 34  1  0
 10 35  1  0
 10 36  1  0
 11 37  1  0
 11 38  1  0
 12 39  1  0
 15 40  1  0
 15 41  1  0
 16 42  1  0
 17 43  1  0
 17 44  1  0
 18 45  1  0
 18 46  1  0
 19 47  1  0
 19 48  1  0
 20 49  1  0
 20 50  1  0
 21 51  1  0
 21 52  1  0
 22 53  1  0
 22 54  1  0
M  END
>  <Energy>  (1394) 
36.356448538388946

>  <compound_id>  (1394) 
87624

>  <target_id>  (1394) 
1

>  <reference_id>  (1394) 
27

>  <inspiration_ids>  (1394) 
[97, 27]

>  <energy_score>  (1394) 
-4.567027928344032

>  <distance_score>  (1394) 
2.5868791375067794

>  <path>  (1394) 
/opt/xchem-fragalysis-2/maxwin/BulkDock/SCRATCH/511017/C87624-P27/C87624-P27.minimised.mol

>  <scratch_subdir>  (1394) 
/opt/xchem-fragalysis-2/maxwin/BulkDock/SCRATCH/511017/C87624-P27

>  <fragmenstein_runtime>  (1394) 
7.919828653335571

>  <fragmenstein_outcome>  (1394) 
too moved

>  <fragmenstein_mode>  (1394) 
expansion

>  <fragmenstein_error>  (1394) 


$$$$
C87625-P97
     RDKit          3D

 51 52  0  0  0  0  0  0  0  0999 V2000
   13.3156   -4.8032   20.6159 C   0  0  0  0  0  0  0  0  0  0  0  0
   14.4266   -3.7806   20.7527 C   0  0  0  0  0  0  0  0  0  0  0  0
   15.6788   -4.0039   19.8925 C   0  0  0  0  0  0  0  0  0  0  0  0
   16.7052   -4.9777   20.5070 C   0  0  0  0  0  0  0  0  0  0  0  0
   16.2068   -6.3513   20.9257 C   0  0  0  0  0  0  0  0  0  0  0  0
   15.3580   -4.3600   18.4274 C   0  0  0  0  0  0  0  0  0  0  0  0
   15.6026   -5.4058   17.9704 O   0  0  0  0  0  0  0  0  0  0  0  0
   14.6907   -3.1117   17.7846 N   0  0  0  0  0  0  0  0  0  0  0  0
   14.2719   -2.8643   16.4073 C   0  0  0  0  0  0  0  0  0  0  0  0
   13.3422   -1.6616   16.1737 C   0  0  0  0  0  0  0  0  0  0  0  0
   14.6061   -0.7899   15.9304 C   0  0  0  0  0  0  0  0  0  0  0  0
   14.5151    0.2851   14.8554 C   0  0  0  0  0  0  0  0  0  0  0  0
   15.7641    1.1598   14.8130 C   0  0  0  0  0  0  0  0  0  0  0  0
   16.9351    0.4563   14.3651 N   0  0  0  0  0  0  0  0  0  0  0  0
   17.3109   -0.0815   12.9585 C   0  0  0  0  0  0  0  0  0  0  0  0
   16.6941   -0.1032   11.9674 O   0  0  0  0  0  0  0  0  0  0  0  0
   18.7397   -0.6193   13.0575 C   0  0  0  0  0  0  0  0  0  0  0  0
   18.8482   -1.9015   13.8320 C   0  0  0  0  0  0  0  0  0  0  0  0
   18.4237   -3.2044   13.2101 C   0  0  0  0  0  0  0  0  0  0  0  0
   19.8823   -2.9298   13.4491 C   0  0  0  0  0  0  0  0  0  0  0  0
   15.3237   -2.1133   15.5605 C   0  0  0  0  0  0  0  0  0  0  0  0
   12.4484   -4.4748   21.1942 H   0  0  0  0  0  0  0  0  0  0  0  0
   13.5991   -5.7824   21.0007 H   0  0  0  0  0  0  0  0  0  0  0  0
   13.0015   -4.9150   19.5763 H   0  0  0  0  0  0  0  0  0  0  0  0
   14.7152   -3.7011   21.8080 H   0  0  0  0  0  0  0  0  0  0  0  0
   14.0096   -2.8033   20.4886 H   0  0  0  0  0  0  0  0  0  0  0  0
   16.2115   -3.0417   19.8481 H   0  0  0  0  0  0  0  0  0  0  0  0
   17.5298   -5.1163   19.7955 H   0  0  0  0  0  0  0  0  0  0  0  0
   17.1492   -4.5005   21.3903 H   0  0  0  0  0  0  0  0  0  0  0  0
   17.0579   -6.9882   21.1900 H   0  0  0  0  0  0  0  0  0  0  0  0
   15.6551   -6.8514   20.1258 H   0  0  0  0  0  0  0  0  0  0  0  0
   15.5720   -6.2871   21.8137 H   0  0  0  0  0  0  0  0  0  0  0  0
   14.7057   -2.3424   18.4438 H   0  0  0  0  0  0  0  0  0  0  0  0
   13.8982   -3.7914   15.9683 H   0  0  0  0  0  0  0  0  0  0  0  0
   12.7191   -1.3466   17.0079 H   0  0  0  0  0  0  0  0  0  0  0  0
   12.7004   -1.7773   15.2912 H   0  0  0  0  0  0  0  0  0  0  0  0
   14.9713   -0.3668   16.8783 H   0  0  0  0  0  0  0  0  0  0  0  0
   14.3241   -0.1641   13.8735 H   0  0  0  0  0  0  0  0  0  0  0  0
   13.6587    0.9329   15.0794 H   0  0  0  0  0  0  0  0  0  0  0  0
   15.9872    1.5834   15.7973 H   0  0  0  0  0  0  0  0  0  0  0  0
   15.5996    1.9821   14.1090 H   0  0  0  0  0  0  0  0  0  0  0  0
   17.6779    0.2417   15.0193 H   0  0  0  0  0  0  0  0  0  0  0  0
   19.1114   -0.7501   12.0333 H   0  0  0  0  0  0  0  0  0  0  0  0
   19.3747    0.1470   13.5175 H   0  0  0  0  0  0  0  0  0  0  0  0
   18.6571   -1.7696   14.8904 H   0  0  0  0  0  0  0  0  0  0  0  0
   18.0588   -3.1971   12.1885 H   0  0  0  0  0  0  0  0  0  0  0  0
   17.9269   -3.9281   13.8479 H   0  0  0  0  0  0  0  0  0  0  0  0
   20.5088   -2.7502   12.5827 H   0  0  0  0  0  0  0  0  0  0  0  0
   20.3745   -3.4794   14.2439 H   0  0  0  0  0  0  0  0  0  0  0  0
   15.2881   -2.3664   14.4943 H   0  0  0  0  0  0  0  0  0  0  0  0
   16.3603   -2.1943   15.8998 H   0  0  0  0  0  0  0  0  0  0  0  0
  1  2  1  0
  2  3  1  0
  3  4  1  0
  4  5  1  0
  3  6  1  0
  6  7  2  0
  6  8  1  0
  8  9  1  0
  9 10  1  0
 10 11  1  0
 11 12  1  0
 12 13  1  0
 13 14  1  0
 14 15  1  0
 15 16  2  0
 15 17  1  0
 17 18  1  0
 18 19  1  0
 19 20  1  0
 11 21  1  0
 21  9  1  0
 20 18  1  0
  1 22  1  0
  1 23  1  0
  1 24  1  0
  2 25  1  0
  2 26  1  0
  3 27  1  0
  4 28  1  0
  4 29  1  0
  5 30  1  0
  5 31  1  0
  5 32  1  0
  8 33  1  0
  9 34  1  0
 10 35  1  0
 10 36  1  0
 11 37  1  0
 12 38  1  0
 12 39  1  0
 13 40  1  0
 13 41  1  0
 14 42  1  0
 17 43  1  0
 17 44  1  0
 18 45  1  0
 19 46  1  0
 19 47  1  0
 20 48  1  0
 20 49  1  0
 21 50  1  0
 21 51  1  0
M  END
>  <Energy>  (1395) 
48.208538551978762

>  <compound_id>  (1395) 
87625

>  <target_id>  (1395) 
1

>  <reference_id>  (1395) 
97

>  <inspiration_ids>  (1395) 
[97, 27]

>  <energy_score>  (1395) 
-9.599920705188723

>  <distance_score>  (1395) 
2.0109299228421964

>  <path>  (1395) 
/opt/xchem-fragalysis-2/maxwin/BulkDock/SCRATCH/511017/C87625-P97/C87625-P97.minimised.mol

>  <scratch_subdir>  (1395) 
/opt/xchem-fragalysis-2/maxwin/BulkDock/SCRATCH/511017/C87625-P97

>  <fragmenstein_runtime>  (1395) 
68.66986179351807

>  <fragmenstein_outcome>  (1395) 
too moved

>  <fragmenstein_mode>  (1395) 
expansion

>  <fragmenstein_error>  (1395) 


$$$$
C87625-P27
     RDKit          3D

 51 52  0  0  0  0  0  0  0  0999 V2000
   13.5785   -4.2945   22.0823 C   0  0  0  0  0  0  0  0  0  0  0  0
   13.8336   -4.2761   20.5822 C   0  0  0  0  0  0  0  0  0  0  0  0
   15.3180   -4.0964   20.2427 C   0  0  0  0  0  0  0  0  0  0  0  0
   16.2536   -5.2106   20.7515 C   0  0  0  0  0  0  0  0  0  0  0  0
   15.8279   -6.6414   20.4643 C   0  0  0  0  0  0  0  0  0  0  0  0
   15.4995   -3.8540   18.7294 C   0  0  0  0  0  0  0  0  0  0  0  0
   15.8552   -4.6784   17.9814 O   0  0  0  0  0  0  0  0  0  0  0  0
   15.2189   -2.3380   18.5019 N   0  0  0  0  0  0  0  0  0  0  0  0
   15.4121   -1.5123   17.3279 C   0  0  0  0  0  0  0  0  0  0  0  0
   15.1486   -2.1371   15.9368 C   0  0  0  0  0  0  0  0  0  0  0  0
   14.7695   -0.6740   15.5055 C   0  0  0  0  0  0  0  0  0  0  0  0
   13.7444   -0.4630   14.4142 C   0  0  0  0  0  0  0  0  0  0  0  0
   14.3850   -0.1088   13.0785 C   0  0  0  0  0  0  0  0  0  0  0  0
   15.3104   -1.0973   12.5970 N   0  0  0  0  0  0  0  0  0  0  0  0
   16.7311   -0.9371   11.9888 C   0  0  0  0  0  0  0  0  0  0  0  0
   17.3328    0.0255   11.7162 O   0  0  0  0  0  0  0  0  0  0  0  0
   17.2450   -2.3573   11.7486 C   0  0  0  0  0  0  0  0  0  0  0  0
   18.6313   -2.4085   11.1720 C   0  0  0  0  0  0  0  0  0  0  0  0
   18.8547   -2.2762    9.6879 C   0  0  0  0  0  0  0  0  0  0  0  0
   19.0759   -3.6011   10.3637 C   0  0  0  0  0  0  0  0  0  0  0  0
   14.2621   -0.5380   16.9714 C   0  0  0  0  0  0  0  0  0  0  0  0
   12.5050   -4.3068   22.2819 H   0  0  0  0  0  0  0  0  0  0  0  0
   13.9957   -3.4037   22.5628 H   0  0  0  0  0  0  0  0  0  0  0  0
   14.0151   -5.1785   22.5553 H   0  0  0  0  0  0  0  0  0  0  0  0
   13.2575   -3.4508   20.1485 H   0  0  0  0  0  0  0  0  0  0  0  0
   13.4357   -5.1880   20.1238 H   0  0  0  0  0  0  0  0  0  0  0  0
   15.6734   -3.1858   20.7471 H   0  0  0  0  0  0  0  0  0  0  0  0
   17.2563   -5.0577   20.3319 H   0  0  0  0  0  0  0  0  0  0  0  0
   16.3649   -5.1054   21.8382 H   0  0  0  0  0  0  0  0  0  0  0  0
   16.5763   -7.3366   20.8596 H   0  0  0  0  0  0  0  0  0  0  0  0
   15.7431   -6.8280   19.3924 H   0  0  0  0  0  0  0  0  0  0  0  0
   14.8752   -6.8840   20.9423 H   0  0  0  0  0  0  0  0  0  0  0  0
   14.8434   -1.9310   19.3522 H   0  0  0  0  0  0  0  0  0  0  0  0
   16.3892   -1.0128   17.3901 H   0  0  0  0  0  0  0  0  0  0  0  0
   14.3242   -2.8589   15.9015 H   0  0  0  0  0  0  0  0  0  0  0  0
   16.0213   -2.5620   15.4341 H   0  0  0  0  0  0  0  0  0  0  0  0
   15.6529   -0.0361   15.3423 H   0  0  0  0  0  0  0  0  0  0  0  0
   13.1137   -1.3535   14.3044 H   0  0  0  0  0  0  0  0  0  0  0  0
   13.0764    0.3618   14.6910 H   0  0  0  0  0  0  0  0  0  0  0  0
   14.9239    0.8423   13.1483 H   0  0  0  0  0  0  0  0  0  0  0  0
   13.6112    0.0060   12.3133 H   0  0  0  0  0  0  0  0  0  0  0  0
   15.0631   -2.0828   12.6278 H   0  0  0  0  0  0  0  0  0  0  0  0
   16.5371   -2.8662   11.0837 H   0  0  0  0  0  0  0  0  0  0  0  0
   17.2574   -2.8743   12.7144 H   0  0  0  0  0  0  0  0  0  0  0  0
   19.3589   -1.9437   11.8299 H   0  0  0  0  0  0  0  0  0  0  0  0
   19.7245   -1.7174    9.3604 H   0  0  0  0  0  0  0  0  0  0  0  0
   17.9917   -2.1662    9.0435 H   0  0  0  0  0  0  0  0  0  0  0  0
   20.0980   -3.9429   10.4840 H   0  0  0  0  0  0  0  0  0  0  0  0
   18.3682   -4.3937   10.1501 H   0  0  0  0  0  0  0  0  0  0  0  0
   14.3389    0.4629   17.4046 H   0  0  0  0  0  0  0  0  0  0  0  0
   13.2514   -0.9260   17.1473 H   0  0  0  0  0  0  0  0  0  0  0  0
  1  2  1  0
  2  3  1  0
  3  4  1  0
  4  5  1  0
  3  6  1  0
  6  7  2  0
  6  8  1  0
  8  9  1  0
  9 10  1  0
 10 11  1  0
 11 12  1  0
 12 13  1  0
 13 14  1  0
 14 15  1  0
 15 16  2  0
 15 17  1  0
 17 18  1  0
 18 19  1  0
 19 20  1  0
 11 21  1  0
 21  9  1  0
 20 18  1  0
  1 22  1  0
  1 23  1  0
  1 24  1  0
  2 25  1  0
  2 26  1  0
  3 27  1  0
  4 28  1  0
  4 29  1  0
  5 30  1  0
  5 31  1  0
  5 32  1  0
  8 33  1  0
  9 34  1  0
 10 35  1  0
 10 36  1  0
 11 37  1  0
 12 38  1  0
 12 39  1  0
 13 40  1  0
 13 41  1  0
 14 42  1  0
 17 43  1  0
 17 44  1  0
 18 45  1  0
 19 46  1  0
 19 47  1  0
 20 48  1  0
 20 49  1  0
 21 50  1  0
 21 51  1  0
M  END
>  <Energy>  (1396) 
49.244738877108553

>  <compound_id>  (1396) 
87625

>  <target_id>  (1396) 
1

>  <reference_id>  (1396) 
27

>  <inspiration_ids>  (1396) 
[97, 27]

>  <energy_score>  (1396) 
-8.563720380058363

>  <distance_score>  (1396) 
2.202063631426249

>  <path>  (1396) 
/opt/xchem-fragalysis-2/maxwin/BulkDock/SCRATCH/511017/C87625-P27/C87625-P27.minimised.mol

>  <scratch_subdir>  (1396) 
/opt/xchem-fragalysis-2/maxwin/BulkDock/SCRATCH/511017/C87625-P27

>  <fragmenstein_runtime>  (1396) 
70.02284288406372

>  <fragmenstein_outcome>  (1396) 
too moved

>  <fragmenstein_mode>  (1396) 
expansion

>  <fragmenstein_error>  (1396) 


$$$$
C87626-P97
     RDKit          3D

 50 51  0  0  0  0  0  0  0  0999 V2000
    9.9846    4.9001   13.3009 C   0  0  0  0  0  0  0  0  0  0  0  0
   11.1778    3.9570   13.2539 C   0  0  0  0  0  0  0  0  0  0  0  0
   10.8822    2.5460   13.7990 C   0  0  0  0  0  0  0  0  0  0  0  0
   10.3710    2.5244   15.2554 C   0  0  0  0  0  0  0  0  0  0  0  0
   11.3212    3.1488   16.2702 C   0  0  0  0  0  0  0  0  0  0  0  0
   12.1278    1.6541   13.6634 C   0  0  0  0  0  0  0  0  0  0  0  0
   13.2103    2.0887   13.5805 O   0  0  0  0  0  0  0  0  0  0  0  0
   11.6374    0.1761   13.7683 N   0  0  0  0  0  0  0  0  0  0  0  0
   12.3950   -1.0690   13.8891 C   0  0  0  0  0  0  0  0  0  0  0  0
   12.4511   -1.5602   15.3528 C   0  0  0  0  0  0  0  0  0  0  0  0
   13.7766   -0.7465   15.4835 C   0  0  0  0  0  0  0  0  0  0  0  0
   14.7911   -1.4091   16.3729 C   0  0  0  0  0  0  0  0  0  0  0  0
   16.1165   -0.6787   16.4590 C   0  0  0  0  0  0  0  0  0  0  0  0
   16.9499   -1.4567   17.3394 N   0  0  0  0  0  0  0  0  0  0  0  0
   17.9901   -2.5649   17.0242 C   0  0  0  0  0  0  0  0  0  0  0  0
   18.3858   -2.9617   15.9995 O   0  0  0  0  0  0  0  0  0  0  0  0
   18.3892   -3.1935   18.3439 C   0  0  0  0  0  0  0  0  0  0  0  0
   17.4188   -4.1960   18.7231 N   0  0  0  0  0  0  0  0  0  0  0  0
   17.4507   -5.5309   18.4559 C   0  0  0  0  0  0  0  0  0  0  0  0
   16.4072   -6.0353   19.1908 C   0  0  0  0  0  0  0  0  0  0  0  0
   15.7698   -5.0170   19.8414 N   0  0  0  0  0  0  0  0  0  0  0  0
   16.3933   -3.8846   19.5420 N   0  0  0  0  0  0  0  0  0  0  0  0
   13.9327   -0.9430   13.9592 C   0  0  0  0  0  0  0  0  0  0  0  0
    9.7093    5.1477   14.3301 H   0  0  0  0  0  0  0  0  0  0  0  0
    9.1131    4.4640   12.8055 H   0  0  0  0  0  0  0  0  0  0  0  0
   10.2284    5.8376   12.7908 H   0  0  0  0  0  0  0  0  0  0  0  0
   11.5044    3.8666   12.2095 H   0  0  0  0  0  0  0  0  0  0  0  0
   12.0170    4.4155   13.7905 H   0  0  0  0  0  0  0  0  0  0  0  0
   10.1128    2.1080   13.1558 H   0  0  0  0  0  0  0  0  0  0  0  0
    9.4074    3.0428   15.3154 H   0  0  0  0  0  0  0  0  0  0  0  0
   10.1733    1.4919   15.5677 H   0  0  0  0  0  0  0  0  0  0  0  0
   12.2893    2.6394   16.2795 H   0  0  0  0  0  0  0  0  0  0  0  0
   10.8960    3.0702   17.2756 H   0  0  0  0  0  0  0  0  0  0  0  0
   11.4881    4.2103   16.0672 H   0  0  0  0  0  0  0  0  0  0  0  0
   10.6217    0.1521   13.7419 H   0  0  0  0  0  0  0  0  0  0  0  0
   12.0387   -1.8260   13.1881 H   0  0  0  0  0  0  0  0  0  0  0  0
   11.6359   -1.2372   16.0054 H   0  0  0  0  0  0  0  0  0  0  0  0
   12.5613   -2.6478   15.4440 H   0  0  0  0  0  0  0  0  0  0  0  0
   13.5979    0.2971   15.7754 H   0  0  0  0  0  0  0  0  0  0  0  0
   14.3711   -1.4922   17.3851 H   0  0  0  0  0  0  0  0  0  0  0  0
   14.9651   -2.4435   16.0447 H   0  0  0  0  0  0  0  0  0  0  0  0
   16.0032    0.3242   16.8796 H   0  0  0  0  0  0  0  0  0  0  0  0
   16.5992   -0.6148   15.4795 H   0  0  0  0  0  0  0  0  0  0  0  0
   16.7801   -1.4251   18.3416 H   0  0  0  0  0  0  0  0  0  0  0  0
   18.4711   -2.4503   19.1431 H   0  0  0  0  0  0  0  0  0  0  0  0
   19.3656   -3.6778   18.2364 H   0  0  0  0  0  0  0  0  0  0  0  0
   18.1896   -5.9895   17.8152 H   0  0  0  0  0  0  0  0  0  0  0  0
   16.0817   -7.0623   19.2827 H   0  0  0  0  0  0  0  0  0  0  0  0
   14.3977   -0.1216   13.4103 H   0  0  0  0  0  0  0  0  0  0  0  0
   14.4520   -1.8664   13.6716 H   0  0  0  0  0  0  0  0  0  0  0  0
  1  2  1  0
  2  3  1  0
  3  4  1  0
  4  5  1  0
  3  6  1  0
  6  7  2  0
  6  8  1  0
  8  9  1  0
  9 10  1  0
 10 11  1  0
 11 12  1  0
 12 13  1  0
 13 14  1  0
 14 15  1  0
 15 16  2  0
 15 17  1  0
 17 18  1  0
 18 19  1  0
 19 20  2  0
 20 21  1  0
 21 22  2  0
 11 23  1  0
 23  9  1  0
 22 18  1  0
  1 24  1  0
  1 25  1  0
  1 26  1  0
  2 27  1  0
  2 28  1  0
  3 29  1  0
  4 30  1  0
  4 31  1  0
  5 32  1  0
  5 33  1  0
  5 34  1  0
  8 35  1  0
  9 36  1  0
 10 37  1  0
 10 38  1  0
 11 39  1  0
 12 40  1  0
 12 41  1  0
 13 42  1  0
 13 43  1  0
 14 44  1  0
 17 45  1  0
 17 46  1  0
 19 47  1  0
 20 48  1  0
 23 49  1  0
 23 50  1  0
M  END
>  <Energy>  (1397) 
23.020151321108301

>  <compound_id>  (1397) 
87626

>  <target_id>  (1397) 
1

>  <reference_id>  (1397) 
97

>  <inspiration_ids>  (1397) 
[97, 27]

>  <energy_score>  (1397) 
-9.061412126040054

>  <distance_score>  (1397) 
2.6150908901202174

>  <path>  (1397) 
/opt/xchem-fragalysis-2/maxwin/BulkDock/SCRATCH/511017/C87626-P97/C87626-P97.minimised.mol

>  <scratch_subdir>  (1397) 
/opt/xchem-fragalysis-2/maxwin/BulkDock/SCRATCH/511017/C87626-P97

>  <fragmenstein_runtime>  (1397) 
23.04957342147827

>  <fragmenstein_outcome>  (1397) 
too moved

>  <fragmenstein_mode>  (1397) 
expansion

>  <fragmenstein_error>  (1397) 


$$$$
C87626-P27
     RDKit          3D

 50 51  0  0  0  0  0  0  0  0999 V2000
    9.6367    6.0975   14.8509 C   0  0  0  0  0  0  0  0  0  0  0  0
    9.7991    4.8626   13.9772 C   0  0  0  0  0  0  0  0  0  0  0  0
   10.8670    3.8769   14.4931 C   0  0  0  0  0  0  0  0  0  0  0  0
   12.2837    4.4802   14.5862 C   0  0  0  0  0  0  0  0  0  0  0  0
   12.8251    5.0292   13.2720 C   0  0  0  0  0  0  0  0  0  0  0  0
   10.8697    2.5990   13.6232 C   0  0  0  0  0  0  0  0  0  0  0  0
   10.3684    2.5438   12.5685 O   0  0  0  0  0  0  0  0  0  0  0  0
   11.6392    1.5156   14.4304 N   0  0  0  0  0  0  0  0  0  0  0  0
   12.0363    0.1534   14.0579 C   0  0  0  0  0  0  0  0  0  0  0  0
   12.1448   -0.8395   15.2473 C   0  0  0  0  0  0  0  0  0  0  0  0
   13.5994   -0.3054   15.4368 C   0  0  0  0  0  0  0  0  0  0  0  0
   14.6274   -1.2881   15.9423 C   0  0  0  0  0  0  0  0  0  0  0  0
   15.9752   -0.6296   16.1876 C   0  0  0  0  0  0  0  0  0  0  0  0
   16.7693   -1.4757   17.0388 N   0  0  0  0  0  0  0  0  0  0  0  0
   17.7135   -2.6565   16.6878 C   0  0  0  0  0  0  0  0  0  0  0  0
   18.0506   -3.0728   15.6501 O   0  0  0  0  0  0  0  0  0  0  0  0
   18.2036   -3.2465   17.9947 C   0  0  0  0  0  0  0  0  0  0  0  0
   17.2799   -4.2347   18.5000 N   0  0  0  0  0  0  0  0  0  0  0  0
   17.4050   -5.5895   18.4389 C   0  0  0  0  0  0  0  0  0  0  0  0
   16.4305   -6.0461   19.2903 C   0  0  0  0  0  0  0  0  0  0  0  0
   15.7348   -4.9875   19.8006 N   0  0  0  0  0  0  0  0  0  0  0  0
   16.2616   -3.8738   19.3075 N   0  0  0  0  0  0  0  0  0  0  0  0
   13.5748   -0.0037   13.9205 C   0  0  0  0  0  0  0  0  0  0  0  0
   10.5286    6.7300   14.8234 H   0  0  0  0  0  0  0  0  0  0  0  0
    9.4386    5.8199   15.8910 H   0  0  0  0  0  0  0  0  0  0  0  0
    8.7942    6.6997   14.4955 H   0  0  0  0  0  0  0  0  0  0  0  0
    8.8318    4.3463   13.9369 H   0  0  0  0  0  0  0  0  0  0  0  0
   10.0148    5.1707   12.9473 H   0  0  0  0  0  0  0  0  0  0  0  0
   10.5594    3.5722   15.5032 H   0  0  0  0  0  0  0  0  0  0  0  0
   12.2920    5.2822   15.3334 H   0  0  0  0  0  0  0  0  0  0  0  0
   12.9913    3.7276   14.9531 H   0  0  0  0  0  0  0  0  0  0  0  0
   12.8423    4.2605   12.4937 H   0  0  0  0  0  0  0  0  0  0  0  0
   13.8512    5.3849   13.4124 H   0  0  0  0  0  0  0  0  0  0  0  0
   12.2316    5.8748   12.9132 H   0  0  0  0  0  0  0  0  0  0  0  0
   11.8707    1.8781   15.3495 H   0  0  0  0  0  0  0  0  0  0  0  0
   11.4567   -0.2089   13.2071 H   0  0  0  0  0  0  0  0  0  0  0  0
   11.4643   -0.6675   16.0853 H   0  0  0  0  0  0  0  0  0  0  0  0
   12.0786   -1.8930   14.9492 H   0  0  0  0  0  0  0  0  0  0  0  0
   13.6066    0.6056   16.0542 H   0  0  0  0  0  0  0  0  0  0  0  0
   14.2610   -1.7110   16.8878 H   0  0  0  0  0  0  0  0  0  0  0  0
   14.7402   -2.1386   15.2586 H   0  0  0  0  0  0  0  0  0  0  0  0
   15.8724    0.3355   16.6928 H   0  0  0  0  0  0  0  0  0  0  0  0
   16.5072   -0.4814   15.2428 H   0  0  0  0  0  0  0  0  0  0  0  0
   16.6289   -1.4403   18.0457 H   0  0  0  0  0  0  0  0  0  0  0  0
   18.3522   -2.4762   18.7584 H   0  0  0  0  0  0  0  0  0  0  0  0
   19.1725   -3.7298   17.8268 H   0  0  0  0  0  0  0  0  0  0  0  0
   18.1607   -6.0899   17.8512 H   0  0  0  0  0  0  0  0  0  0  0  0
   16.1903   -7.0667   19.5540 H   0  0  0  0  0  0  0  0  0  0  0  0
   14.1283    0.8863   13.6073 H   0  0  0  0  0  0  0  0  0  0  0  0
   13.8728   -0.8427   13.2796 H   0  0  0  0  0  0  0  0  0  0  0  0
  1  2  1  0
  2  3  1  0
  3  4  1  0
  4  5  1  0
  3  6  1  0
  6  7  2  0
  6  8  1  0
  8  9  1  0
  9 10  1  0
 10 11  1  0
 11 12  1  0
 12 13  1  0
 13 14  1  0
 14 15  1  0
 15 16  2  0
 15 17  1  0
 17 18  1  0
 18 19  1  0
 19 20  2  0
 20 21  1  0
 21 22  2  0
 11 23  1  0
 23  9  1  0
 22 18  1  0
  1 24  1  0
  1 25  1  0
  1 26  1  0
  2 27  1  0
  2 28  1  0
  3 29  1  0
  4 30  1  0
  4 31  1  0
  5 32  1  0
  5 33  1  0
  5 34  1  0
  8 35  1  0
  9 36  1  0
 10 37  1  0
 10 38  1  0
 11 39  1  0
 12 40  1  0
 12 41  1  0
 13 42  1  0
 13 43  1  0
 14 44  1  0
 17 45  1  0
 17 46  1  0
 19 47  1  0
 20 48  1  0
 23 49  1  0
 23 50  1  0
M  END
>  <Energy>  (1398) 
22.325966937046179

>  <compound_id>  (1398) 
87626

>  <target_id>  (1398) 
1

>  <reference_id>  (1398) 
27

>  <inspiration_ids>  (1398) 
[97, 27]

>  <energy_score>  (1398) 
-9.755596510101483

>  <distance_score>  (1398) 
2.7527422409957314

>  <path>  (1398) 
/opt/xchem-fragalysis-2/maxwin/BulkDock/SCRATCH/511017/C87626-P27/C87626-P27.minimised.mol

>  <scratch_subdir>  (1398) 
/opt/xchem-fragalysis-2/maxwin/BulkDock/SCRATCH/511017/C87626-P27

>  <fragmenstein_runtime>  (1398) 
24.10579562187195

>  <fragmenstein_outcome>  (1398) 
too moved

>  <fragmenstein_mode>  (1398) 
expansion

>  <fragmenstein_error>  (1398) 


$$$$
C87627-P97
     RDKit          3D

 55 56  0  0  0  0  0  0  0  0999 V2000
    8.6405    4.5638   15.3221 C   0  0  0  0  0  0  0  0  0  0  0  0
    9.9686    3.8784   15.0353 C   0  0  0  0  0  0  0  0  0  0  0  0
   10.5812    3.2085   16.2778 C   0  0  0  0  0  0  0  0  0  0  0  0
   10.9486    4.1957   17.4081 C   0  0  0  0  0  0  0  0  0  0  0  0
   11.7289    5.4379   16.9921 C   0  0  0  0  0  0  0  0  0  0  0  0
   11.8022    2.3649   15.8579 C   0  0  0  0  0  0  0  0  0  0  0  0
   12.9023    2.7385   15.9928 O   0  0  0  0  0  0  0  0  0  0  0  0
   11.2494    1.0615   15.1911 N   0  0  0  0  0  0  0  0  0  0  0  0
   11.9487   -0.0085   14.4637 C   0  0  0  0  0  0  0  0  0  0  0  0
   12.7429   -1.0522   15.2888 C   0  0  0  0  0  0  0  0  0  0  0  0
   14.0010   -0.1341   15.1113 C   0  0  0  0  0  0  0  0  0  0  0  0
   15.4347   -0.5618   14.8145 C   0  0  0  0  0  0  0  0  0  0  0  0
   15.7253   -1.9934   15.2207 C   0  0  0  0  0  0  0  0  0  0  0  0
   15.5511   -2.2140   16.6259 N   0  0  0  0  0  0  0  0  0  0  0  0
   16.4889   -1.8989   17.8168 C   0  0  0  0  0  0  0  0  0  0  0  0
   17.5136   -1.3418   17.8451 O   0  0  0  0  0  0  0  0  0  0  0  0
   15.8199   -2.4403   19.0731 C   0  0  0  0  0  0  0  0  0  0  0  0
   15.6437   -3.9551   19.0529 C   0  0  0  0  0  0  0  0  0  0  0  0
   15.1259   -4.4851   20.3841 C   0  0  0  0  0  0  0  0  0  0  0  0
   15.8038   -5.8272   20.4873 C   0  0  0  0  0  0  0  0  0  0  0  0
   17.1464   -5.5537   19.8551 C   0  0  0  0  0  0  0  0  0  0  0  0
   16.9016   -4.6113   18.8076 O   0  0  0  0  0  0  0  0  0  0  0  0
   13.2919    0.4112   13.8474 C   0  0  0  0  0  0  0  0  0  0  0  0
    8.2116    4.9540   14.3935 H   0  0  0  0  0  0  0  0  0  0  0  0
    7.9230    3.8611   15.7574 H   0  0  0  0  0  0  0  0  0  0  0  0
    8.7595    5.4045   16.0113 H   0  0  0  0  0  0  0  0  0  0  0  0
   10.6699    4.6010   14.6018 H   0  0  0  0  0  0  0  0  0  0  0  0
    9.8082    3.1325   14.2494 H   0  0  0  0  0  0  0  0  0  0  0  0
    9.8479    2.5097   16.7004 H   0  0  0  0  0  0  0  0  0  0  0  0
   11.5271    3.6644   18.1742 H   0  0  0  0  0  0  0  0  0  0  0  0
   10.0276    4.5319   17.8989 H   0  0  0  0  0  0  0  0  0  0  0  0
   11.1334    6.0903   16.3472 H   0  0  0  0  0  0  0  0  0  0  0  0
   11.9978    6.0190   17.8807 H   0  0  0  0  0  0  0  0  0  0  0  0
   12.6544    5.1875   16.4679 H   0  0  0  0  0  0  0  0  0  0  0  0
   10.2368    1.0927   15.1734 H   0  0  0  0  0  0  0  0  0  0  0  0
   11.2670   -0.4559   13.7374 H   0  0  0  0  0  0  0  0  0  0  0  0
   12.4146   -1.2026   16.3204 H   0  0  0  0  0  0  0  0  0  0  0  0
   12.8123   -2.0275   14.7942 H   0  0  0  0  0  0  0  0  0  0  0  0
   14.0436    0.5882   15.9376 H   0  0  0  0  0  0  0  0  0  0  0  0
   16.1279    0.1185   15.3255 H   0  0  0  0  0  0  0  0  0  0  0  0
   15.6554   -0.4667   13.7443 H   0  0  0  0  0  0  0  0  0  0  0  0
   15.0799   -2.6926   14.6897 H   0  0  0  0  0  0  0  0  0  0  0  0
   16.7660   -2.2338   14.9798 H   0  0  0  0  0  0  0  0  0  0  0  0
   14.7018   -2.6409   16.9687 H   0  0  0  0  0  0  0  0  0  0  0  0
   16.4640   -2.1530   19.9144 H   0  0  0  0  0  0  0  0  0  0  0  0
   14.8590   -1.9325   19.2116 H   0  0  0  0  0  0  0  0  0  0  0  0
   14.9687   -4.2721   18.2506 H   0  0  0  0  0  0  0  0  0  0  0  0
   15.4474   -3.8494   21.2180 H   0  0  0  0  0  0  0  0  0  0  0  0
   14.0339   -4.5477   20.4152 H   0  0  0  0  0  0  0  0  0  0  0  0
   15.2607   -6.5643   19.8879 H   0  0  0  0  0  0  0  0  0  0  0  0
   15.8793   -6.2038   21.5105 H   0  0  0  0  0  0  0  0  0  0  0  0
   17.8378   -5.0943   20.5698 H   0  0  0  0  0  0  0  0  0  0  0  0
   17.6121   -6.4532   19.4436 H   0  0  0  0  0  0  0  0  0  0  0  0
   13.4358    1.4755   13.6411 H   0  0  0  0  0  0  0  0  0  0  0  0
   13.5178   -0.1385   12.9239 H   0  0  0  0  0  0  0  0  0  0  0  0
  1  2  1  0
  2  3  1  0
  3  4  1  0
  4  5  1  0
  3  6  1  0
  6  7  2  0
  6  8  1  0
  8  9  1  0
  9 10  1  0
 10 11  1  0
 11 12  1  0
 12 13  1  0
 13 14  1  0
 14 15  1  0
 15 16  2  0
 15 17  1  0
 17 18  1  0
 18 19  1  0
 19 20  1  0
 20 21  1  0
 21 22  1  0
 11 23  1  0
 23  9  1  0
 22 18  1  0
  1 24  1  0
  1 25  1  0
  1 26  1  0
  2 27  1  0
  2 28  1  0
  3 29  1  0
  4 30  1  0
  4 31  1  0
  5 32  1  0
  5 33  1  0
  5 34  1  0
  8 35  1  0
  9 36  1  0
 10 37  1  0
 10 38  1  0
 11 39  1  0
 12 40  1  0
 12 41  1  0
 13 42  1  0
 13 43  1  0
 14 44  1  0
 17 45  1  0
 17 46  1  0
 18 47  1  0
 19 48  1  0
 19 49  1  0
 20 50  1  0
 20 51  1  0
 21 52  1  0
 21 53  1  0
 23 54  1  0
 23 55  1  0
M  END
>  <Energy>  (1399) 
30.533674412340531

>  <compound_id>  (1399) 
87627

>  <target_id>  (1399) 
1

>  <reference_id>  (1399) 
97

>  <inspiration_ids>  (1399) 
[97, 27]

>  <energy_score>  (1399) 
-4.450318802790406

>  <distance_score>  (1399) 
2.7221811612839506

>  <path>  (1399) 
/opt/xchem-fragalysis-2/maxwin/BulkDock/SCRATCH/511017/C87627-P97/C87627-P97.minimised.mol

>  <scratch_subdir>  (1399) 
/opt/xchem-fragalysis-2/maxwin/BulkDock/SCRATCH/511017/C87627-P97

>  <fragmenstein_runtime>  (1399) 
26.957786083221436

>  <fragmenstein_outcome>  (1399) 
too moved

>  <fragmenstein_mode>  (1399) 
expansion

>  <fragmenstein_error>  (1399) 


$$$$
C87627-P27
     RDKit          3D

 55 56  0  0  0  0  0  0  0  0999 V2000
   12.1674    4.3246   11.4160 C   0  0  0  0  0  0  0  0  0  0  0  0
   12.9653    3.2399   10.7028 C   0  0  0  0  0  0  0  0  0  0  0  0
   14.2072    2.8024   11.4978 C   0  0  0  0  0  0  0  0  0  0  0  0
   15.0968    1.8634   10.6614 C   0  0  0  0  0  0  0  0  0  0  0  0
   16.3923    1.4889   11.3694 C   0  0  0  0  0  0  0  0  0  0  0  0
   13.8281    2.2093   12.8730 C   0  0  0  0  0  0  0  0  0  0  0  0
   14.1742    2.8019   13.8556 O   0  0  0  0  0  0  0  0  0  0  0  0
   13.0827    0.9832   12.7268 N   0  0  0  0  0  0  0  0  0  0  0  0
   12.5965    0.0241   13.7306 C   0  0  0  0  0  0  0  0  0  0  0  0
   13.4804   -1.2511   13.8208 C   0  0  0  0  0  0  0  0  0  0  0  0
   14.2915   -0.5145   14.9258 C   0  0  0  0  0  0  0  0  0  0  0  0
   14.8519   -1.3204   16.0826 C   0  0  0  0  0  0  0  0  0  0  0  0
   16.0845   -2.1162   15.6290 C   0  0  0  0  0  0  0  0  0  0  0  0
   16.6950   -2.8890   16.8024 N   0  0  0  0  0  0  0  0  0  0  0  0
   16.7330   -3.8607   17.2697 C   0  0  0  0  0  0  0  0  0  0  0  0
   15.8994   -4.7774   16.2366 O   0  0  0  0  0  0  0  0  0  0  0  0
   17.2442   -4.6059   18.4354 C   0  0  0  0  0  0  0  0  0  0  0  0
   16.5497   -4.1287   19.6965 C   0  0  0  0  0  0  0  0  0  0  0  0
   15.0634   -4.4537   19.7529 C   0  0  0  0  0  0  0  0  0  0  0  0
   14.8260   -4.5468   21.2375 C   0  0  0  0  0  0  0  0  0  0  0  0
   16.0989   -5.2122   21.7117 C   0  0  0  0  0  0  0  0  0  0  0  0
   17.1475   -4.7786   20.8342 O   0  0  0  0  0  0  0  0  0  0  0  0
   12.9861    0.2766   15.2085 C   0  0  0  0  0  0  0  0  0  0  0  0
   11.3520    4.6754   10.7767 H   0  0  0  0  0  0  0  0  0  0  0  0
   12.8000    5.1852   11.6552 H   0  0  0  0  0  0  0  0  0  0  0  0
   11.7256    3.9505   12.3446 H   0  0  0  0  0  0  0  0  0  0  0  0
   12.3083    2.3878   10.5024 H   0  0  0  0  0  0  0  0  0  0  0  0
   13.2797    3.6316    9.7276 H   0  0  0  0  0  0  0  0  0  0  0  0
   14.8003    3.7052   11.7048 H   0  0  0  0  0  0  0  0  0  0  0  0
   15.3552    2.3644    9.7200 H   0  0  0  0  0  0  0  0  0  0  0  0
   14.5654    0.9469   10.3848 H   0  0  0  0  0  0  0  0  0  0  0  0
   16.2007    0.8984   12.2701 H   0  0  0  0  0  0  0  0  0  0  0  0
   17.0224    0.8881   10.7057 H   0  0  0  0  0  0  0  0  0  0  0  0
   16.9568    2.3823   11.6543 H   0  0  0  0  0  0  0  0  0  0  0  0
   13.0451    0.7349   11.7464 H   0  0  0  0  0  0  0  0  0  0  0  0
   11.5310   -0.1732   13.5776 H   0  0  0  0  0  0  0  0  0  0  0  0
   12.9331   -2.1349   14.1697 H   0  0  0  0  0  0  0  0  0  0  0  0
   14.0433   -1.5205   12.9225 H   0  0  0  0  0  0  0  0  0  0  0  0
   15.0745    0.1343   14.5067 H   0  0  0  0  0  0  0  0  0  0  0  0
   15.1341   -0.6427   16.8977 H   0  0  0  0  0  0  0  0  0  0  0  0
   14.0968   -2.0041   16.4893 H   0  0  0  0  0  0  0  0  0  0  0  0
   15.7693   -2.8559   14.8834 H   0  0  0  0  0  0  0  0  0  0  0  0
   16.8305   -1.4842   15.1062 H   0  0  0  0  0  0  0  0  0  0  0  0
   16.9397   -1.9326   16.7009 H   0  0  0  0  0  0  0  0  0  0  0  0
   17.1065   -5.6824   18.2861 H   0  0  0  0  0  0  0  0  0  0  0  0
   18.3254   -4.4424   18.5110 H   0  0  0  0  0  0  0  0  0  0  0  0
   16.6984   -3.0498   19.8330 H   0  0  0  0  0  0  0  0  0  0  0  0
   14.4413   -3.7004   19.2611 H   0  0  0  0  0  0  0  0  0  0  0  0
   14.8568   -5.4245   19.2903 H   0  0  0  0  0  0  0  0  0  0  0  0
   13.9255   -5.1058   21.5050 H   0  0  0  0  0  0  0  0  0  0  0  0
   14.7461   -3.5402   21.6649 H   0  0  0  0  0  0  0  0  0  0  0  0
   16.3502   -4.9519   22.7436 H   0  0  0  0  0  0  0  0  0  0  0  0
   16.0285   -6.3025   21.6337 H   0  0  0  0  0  0  0  0  0  0  0  0
   12.3091   -0.2153   15.9197 H   0  0  0  0  0  0  0  0  0  0  0  0
   13.1073    1.3115   15.5340 H   0  0  0  0  0  0  0  0  0  0  0  0
  1  2  1  0
  2  3  1  0
  3  4  1  0
  4  5  1  0
  3  6  1  0
  6  7  2  0
  6  8  1  0
  8  9  1  0
  9 10  1  0
 10 11  1  0
 11 12  1  0
 12 13  1  0
 13 14  1  0
 14 15  1  0
 15 16  2  0
 15 17  1  0
 17 18  1  0
 18 19  1  0
 19 20  1  0
 20 21  1  0
 21 22  1  0
 11 23  1  0
 23  9  1  0
 22 18  1  0
  1 24  1  0
  1 25  1  0
  1 26  1  0
  2 27  1  0
  2 28  1  0
  3 29  1  0
  4 30  1  0
  4 31  1  0
  5 32  1  0
  5 33  1  0
  5 34  1  0
  8 35  1  0
  9 36  1  0
 10 37  1  0
 10 38  1  0
 11 39  1  0
 12 40  1  0
 12 41  1  0
 13 42  1  0
 13 43  1  0
 14 44  1  0
 17 45  1  0
 17 46  1  0
 18 47  1  0
 19 48  1  0
 19 49  1  0
 20 50  1  0
 20 51  1  0
 21 52  1  0
 21 53  1  0
 23 54  1  0
 23 55  1  0
M  END
>  <Energy>  (1400) 
198.53540415586849

>  <compound_id>  (1400) 
87627

>  <target_id>  (1400) 
1

>  <reference_id>  (1400) 
27

>  <inspiration_ids>  (1400) 
[97, 27]

>  <energy_score>  (1400) 
152.89700138178446

>  <distance_score>  (1400) 
2.804043025075901

>  <path>  (1400) 
/opt/xchem-fragalysis-2/maxwin/BulkDock/SCRATCH/511017/C87627-P27/C87627-P27.minimised.mol

>  <scratch_subdir>  (1400) 
/opt/xchem-fragalysis-2/maxwin/BulkDock/SCRATCH/511017/C87627-P27

>  <fragmenstein_runtime>  (1400) 
28.997524976730347

>  <fragmenstein_outcome>  (1400) 
too moved

>  <fragmenstein_mode>  (1400) 
expansion

>  <fragmenstein_error>  (1400) 


$$$$
C74020-P97
     RDKit          3D

 50 51  0  0  0  0  0  0  0  0999 V2000
   18.3608   -3.5291   10.8581 C   0  0  0  0  0  0  0  0  0  0  0  0
   18.8917   -3.5256   12.2826 C   0  0  0  0  0  0  0  0  0  0  0  0
   18.7369   -2.2215   13.0775 C   0  0  0  0  0  0  0  0  0  0  0  0
   19.2359   -0.9423   12.3808 C   0  0  0  0  0  0  0  0  0  0  0  0
   20.7334   -0.9612   12.1047 C   0  0  0  0  0  0  0  0  0  0  0  0
   17.3366   -2.0419   13.7121 C   0  0  0  0  0  0  0  0  0  0  0  0
   17.1697   -2.2212   14.8582 O   0  0  0  0  0  0  0  0  0  0  0  0
   16.3550   -1.5195   12.6175 N   0  0  0  0  0  0  0  0  0  0  0  0
   14.9835   -1.0166   12.7316 C   0  0  0  0  0  0  0  0  0  0  0  0
   14.0574   -1.6357   13.7961 C   0  0  0  0  0  0  0  0  0  0  0  0
   13.7646   -0.2097   14.3342 C   0  0  0  0  0  0  0  0  0  0  0  0
   13.7665    0.1742   15.8108 C   0  0  0  0  0  0  0  0  0  0  0  0
   14.9805   -0.2439   16.6314 C   0  0  0  0  0  0  0  0  0  0  0  0
   15.1517   -1.6637   16.7050 N   0  0  0  0  0  0  0  0  0  0  0  0
   14.1243   -2.7867   16.9887 C   0  0  0  0  0  0  0  0  0  0  0  0
   12.9975   -2.7232   17.2819 O   0  0  0  0  0  0  0  0  0  0  0  0
   14.8194   -4.1184   16.7799 C   0  0  0  0  0  0  0  0  0  0  0  0
   15.7822   -4.4327   17.8653 C   0  0  0  0  0  0  0  0  0  0  0  0
   17.1522   -4.5688   17.7735 C   0  0  0  0  0  0  0  0  0  0  0  0
   17.6899   -4.9774   19.0215 C   0  0  0  0  0  0  0  0  0  0  0  0
   16.8322   -5.1364   20.0239 N   0  0  0  0  0  0  0  0  0  0  0  0
   15.3085   -4.7735   19.4740 S   0  0  0  0  0  0  0  0  0  0  0  0
   14.9334    0.3171   13.4994 C   0  0  0  0  0  0  0  0  0  0  0  0
   18.5908   -4.4900   10.3854 H   0  0  0  0  0  0  0  0  0  0  0  0
   17.2761   -3.4061   10.8278 H   0  0  0  0  0  0  0  0  0  0  0  0
   18.8213   -2.7479   10.2476 H   0  0  0  0  0  0  0  0  0  0  0  0
   19.9588   -3.7783   12.2374 H   0  0  0  0  0  0  0  0  0  0  0  0
   18.4201   -4.3420   12.8403 H   0  0  0  0  0  0  0  0  0  0  0  0
   19.3894   -2.3477   13.9569 H   0  0  0  0  0  0  0  0  0  0  0  0
   18.7094   -0.7649   11.4373 H   0  0  0  0  0  0  0  0  0  0  0  0
   19.0130   -0.0773   13.0187 H   0  0  0  0  0  0  0  0  0  0  0  0
   21.0472   -0.0059   11.6717 H   0  0  0  0  0  0  0  0  0  0  0  0
   21.0003   -1.7512   11.3967 H   0  0  0  0  0  0  0  0  0  0  0  0
   21.3018   -1.1161   13.0272 H   0  0  0  0  0  0  0  0  0  0  0  0
   16.8032   -1.5641   11.7123 H   0  0  0  0  0  0  0  0  0  0  0  0
   14.5064   -0.9564   11.7457 H   0  0  0  0  0  0  0  0  0  0  0  0
   13.1783   -2.1481   13.3917 H   0  0  0  0  0  0  0  0  0  0  0  0
   14.5714   -2.3227   14.4575 H   0  0  0  0  0  0  0  0  0  0  0  0
   12.8110    0.1472   13.9107 H   0  0  0  0  0  0  0  0  0  0  0  0
   12.8625   -0.2406   16.2732 H   0  0  0  0  0  0  0  0  0  0  0  0
   13.6653    1.2644   15.8868 H   0  0  0  0  0  0  0  0  0  0  0  0
   15.9069    0.1831   16.2389 H   0  0  0  0  0  0  0  0  0  0  0  0
   14.8581    0.1115   17.6600 H   0  0  0  0  0  0  0  0  0  0  0  0
   16.0745   -2.0749   16.5568 H   0  0  0  0  0  0  0  0  0  0  0  0
   15.3327   -4.1053   15.8135 H   0  0  0  0  0  0  0  0  0  0  0  0
   14.0464   -4.8893   16.7103 H   0  0  0  0  0  0  0  0  0  0  0  0
   17.7259   -4.4129   16.8688 H   0  0  0  0  0  0  0  0  0  0  0  0
   18.7337   -5.1734   19.2302 H   0  0  0  0  0  0  0  0  0  0  0  0
   15.8443    0.5533   14.0592 H   0  0  0  0  0  0  0  0  0  0  0  0
   14.6940    1.1893   12.8813 H   0  0  0  0  0  0  0  0  0  0  0  0
  1  2  1  0
  2  3  1  0
  3  4  1  0
  4  5  1  0
  3  6  1  0
  6  7  2  0
  6  8  1  0
  8  9  1  0
  9 10  1  0
 10 11  1  0
 11 12  1  0
 12 13  1  0
 13 14  1  0
 14 15  1  0
 15 16  2  0
 15 17  1  0
 17 18  1  0
 18 19  2  0
 19 20  1  0
 20 21  2  0
 21 22  1  0
 11 23  1  0
 23  9  1  0
 22 18  1  0
  1 24  1  0
  1 25  1  0
  1 26  1  0
  2 27  1  0
  2 28  1  0
  3 29  1  0
  4 30  1  0
  4 31  1  0
  5 32  1  0
  5 33  1  0
  5 34  1  0
  8 35  1  0
  9 36  1  0
 10 37  1  0
 10 38  1  0
 11 39  1  0
 12 40  1  0
 12 41  1  0
 13 42  1  0
 13 43  1  0
 14 44  1  0
 17 45  1  0
 17 46  1  0
 19 47  1  0
 20 48  1  0
 23 49  1  0
 23 50  1  0
M  END
>  <Energy>  (1401) 
30.573568810904774

>  <compound_id>  (1401) 
74020

>  <target_id>  (1401) 
1

>  <reference_id>  (1401) 
97

>  <inspiration_ids>  (1401) 
[97, 27]

>  <energy_score>  (1401) 
-17.612596767470002

>  <distance_score>  (1401) 
3.2182180322720333

>  <path>  (1401) 
/opt/xchem-fragalysis-2/maxwin/BulkDock/SCRATCH/511017/C74020-P97/C74020-P97.minimised.mol

>  <scratch_subdir>  (1401) 
/opt/xchem-fragalysis-2/maxwin/BulkDock/SCRATCH/511017/C74020-P97

>  <fragmenstein_runtime>  (1401) 
12.251372337341309

>  <fragmenstein_outcome>  (1401) 
too moved

>  <fragmenstein_mode>  (1401) 
expansion

>  <fragmenstein_error>  (1401) 


$$$$
C74020-P27
     RDKit          3D

 50 51  0  0  0  0  0  0  0  0999 V2000
   13.7872    1.8322   11.4563 C   0  0  0  0  0  0  0  0  0  0  0  0
   12.4188    2.3818   11.8338 C   0  0  0  0  0  0  0  0  0  0  0  0
   12.3496    2.8945   13.2828 C   0  0  0  0  0  0  0  0  0  0  0  0
   10.9634    3.4420   13.6619 C   0  0  0  0  0  0  0  0  0  0  0  0
   10.5926    4.7196   12.9238 C   0  0  0  0  0  0  0  0  0  0  0  0
   12.7930    1.8691   14.3458 C   0  0  0  0  0  0  0  0  0  0  0  0
   13.6221    2.1342   15.1275 O   0  0  0  0  0  0  0  0  0  0  0  0
   11.9223    0.5846   14.1936 N   0  0  0  0  0  0  0  0  0  0  0  0
   11.9643   -0.6829   14.9226 C   0  0  0  0  0  0  0  0  0  0  0  0
   12.8214   -1.7765   14.2563 C   0  0  0  0  0  0  0  0  0  0  0  0
   13.9577   -1.4729   15.2725 C   0  0  0  0  0  0  0  0  0  0  0  0
   15.1306   -0.5955   14.8184 C   0  0  0  0  0  0  0  0  0  0  0  0
   16.3454   -1.4501   14.4607 C   0  0  0  0  0  0  0  0  0  0  0  0
   16.9826   -1.9786   15.6444 N   0  0  0  0  0  0  0  0  0  0  0  0
   17.5689   -3.3899   15.9303 C   0  0  0  0  0  0  0  0  0  0  0  0
   17.6944   -4.3138   15.2265 O   0  0  0  0  0  0  0  0  0  0  0  0
   17.9846   -3.4176   17.4029 C   0  0  0  0  0  0  0  0  0  0  0  0
   16.9050   -4.0522   18.2160 C   0  0  0  0  0  0  0  0  0  0  0  0
   15.5814   -3.7044   18.3859 C   0  0  0  0  0  0  0  0  0  0  0  0
   14.9504   -4.6102   19.2794 C   0  0  0  0  0  0  0  0  0  0  0  0
   15.6934   -5.5945   19.7719 N   0  0  0  0  0  0  0  0  0  0  0  0
   17.2259   -5.4349   19.1785 S   0  0  0  0  0  0  0  0  0  0  0  0
   12.8924   -0.7731   16.1442 C   0  0  0  0  0  0  0  0  0  0  0  0
   13.8239    1.6212   10.3829 H   0  0  0  0  0  0  0  0  0  0  0  0
   14.5797    2.5512   11.6859 H   0  0  0  0  0  0  0  0  0  0  0  0
   13.9993    0.8979   11.9821 H   0  0  0  0  0  0  0  0  0  0  0  0
   11.6595    1.6166   11.6425 H   0  0  0  0  0  0  0  0  0  0  0  0
   12.1972    3.2091   11.1499 H   0  0  0  0  0  0  0  0  0  0  0  0
   13.0684    3.7232   13.3639 H   0  0  0  0  0  0  0  0  0  0  0  0
   10.1964    2.6859   13.4752 H   0  0  0  0  0  0  0  0  0  0  0  0
   10.9344    3.6477   14.7396 H   0  0  0  0  0  0  0  0  0  0  0  0
    9.6239    5.0883   13.2761 H   0  0  0  0  0  0  0  0  0  0  0  0
   10.5113    4.5533   11.8468 H   0  0  0  0  0  0  0  0  0  0  0  0
   11.3366    5.5032   13.0976 H   0  0  0  0  0  0  0  0  0  0  0  0
   11.2437    0.7215   13.4574 H   0  0  0  0  0  0  0  0  0  0  0  0
   10.9404   -1.0089   15.1402 H   0  0  0  0  0  0  0  0  0  0  0  0
   12.3841   -2.7754   14.3671 H   0  0  0  0  0  0  0  0  0  0  0  0
   13.0728   -1.6260   13.2025 H   0  0  0  0  0  0  0  0  0  0  0  0
   14.3184   -2.3856   15.7627 H   0  0  0  0  0  0  0  0  0  0  0  0
   14.8483   -0.0042   13.9439 H   0  0  0  0  0  0  0  0  0  0  0  0
   15.4077    0.1040   15.6162 H   0  0  0  0  0  0  0  0  0  0  0  0
   16.0826   -2.2840   13.8023 H   0  0  0  0  0  0  0  0  0  0  0  0
   17.0958   -0.8337   13.9559 H   0  0  0  0  0  0  0  0  0  0  0  0
   16.9498   -1.4447   16.5050 H   0  0  0  0  0  0  0  0  0  0  0  0
   18.9287   -3.9724   17.4641 H   0  0  0  0  0  0  0  0  0  0  0  0
   18.1990   -2.4112   17.7777 H   0  0  0  0  0  0  0  0  0  0  0  0
   15.0943   -2.8599   17.9205 H   0  0  0  0  0  0  0  0  0  0  0  0
   13.9147   -4.5653   19.5967 H   0  0  0  0  0  0  0  0  0  0  0  0
   12.4953   -1.4341   16.9244 H   0  0  0  0  0  0  0  0  0  0  0  0
   13.1821    0.1605   16.6312 H   0  0  0  0  0  0  0  0  0  0  0  0
  1  2  1  0
  2  3  1  0
  3  4  1  0
  4  5  1  0
  3  6  1  0
  6  7  2  0
  6  8  1  0
  8  9  1  0
  9 10  1  0
 10 11  1  0
 11 12  1  0
 12 13  1  0
 13 14  1  0
 14 15  1  0
 15 16  2  0
 15 17  1  0
 17 18  1  0
 18 19  2  0
 19 20  1  0
 20 21  2  0
 21 22  1  0
 11 23  1  0
 23  9  1  0
 22 18  1  0
  1 24  1  0
  1 25  1  0
  1 26  1  0
  2 27  1  0
  2 28  1  0
  3 29  1  0
  4 30  1  0
  4 31  1  0
  5 32  1  0
  5 33  1  0
  5 34  1  0
  8 35  1  0
  9 36  1  0
 10 37  1  0
 10 38  1  0
 11 39  1  0
 12 40  1  0
 12 41  1  0
 13 42  1  0
 13 43  1  0
 14 44  1  0
 17 45  1  0
 17 46  1  0
 19 47  1  0
 20 48  1  0
 23 49  1  0
 23 50  1  0
M  END
>  <Energy>  (1402) 
32.959261678929536

>  <compound_id>  (1402) 
74020

>  <target_id>  (1402) 
1

>  <reference_id>  (1402) 
27

>  <inspiration_ids>  (1402) 
[97, 27]

>  <energy_score>  (1402) 
-15.226903899443826

>  <distance_score>  (1402) 
2.6492316110598644

>  <path>  (1402) 
/opt/xchem-fragalysis-2/maxwin/BulkDock/SCRATCH/511017/C74020-P27/C74020-P27.minimised.mol

>  <scratch_subdir>  (1402) 
/opt/xchem-fragalysis-2/maxwin/BulkDock/SCRATCH/511017/C74020-P27

>  <fragmenstein_runtime>  (1402) 
12.474740505218506

>  <fragmenstein_outcome>  (1402) 
too moved

>  <fragmenstein_mode>  (1402) 
expansion

>  <fragmenstein_error>  (1402) 


$$$$
C87629-P97
     RDKit          3D

 56 57  0  0  0  0  0  0  0  0999 V2000
   17.9208   -5.5475   20.2456 C   0  0  0  0  0  0  0  0  0  0  0  0
   17.7880   -4.7183   18.9753 C   0  0  0  0  0  0  0  0  0  0  0  0
   16.5538   -5.1057   18.1464 C   0  0  0  0  0  0  0  0  0  0  0  0
   15.3373   -4.1839   18.3596 C   0  0  0  0  0  0  0  0  0  0  0  0
   14.7446   -4.2287   19.7560 C   0  0  0  0  0  0  0  0  0  0  0  0
   16.8484   -5.1695   16.6288 C   0  0  0  0  0  0  0  0  0  0  0  0
   16.5539   -6.1692   16.0391 O   0  0  0  0  0  0  0  0  0  0  0  0
   17.3680   -3.9205   16.1532 N   0  0  0  0  0  0  0  0  0  0  0  0
   17.6089   -3.4420   14.8053 C   0  0  0  0  0  0  0  0  0  0  0  0
   18.8648   -2.5897   14.6821 C   0  0  0  0  0  0  0  0  0  0  0  0
   18.4100   -1.3857   13.8647 C   0  0  0  0  0  0  0  0  0  0  0  0
   17.0061   -1.1370   14.2602 N   0  0  0  0  0  0  0  0  0  0  0  0
   16.9742   -0.4397   15.5696 C   0  0  0  0  0  0  0  0  0  0  0  0
   15.6872    0.3149   15.9857 C   0  0  0  0  0  0  0  0  0  0  0  0
   15.7303    0.8358   17.0784 O   0  0  0  0  0  0  0  0  0  0  0  0
   14.6814    0.3603   14.9789 N   0  0  0  0  0  0  0  0  0  0  0  0
   13.3457    1.1895   14.8958 C   0  0  0  0  0  0  0  0  0  0  0  0
   12.9483    1.6155   13.4820 C   0  0  0  0  0  0  0  0  0  0  0  0
   13.6832   -0.7892   15.1649 C   0  0  0  0  0  0  0  0  0  0  0  0
   13.0858   -1.3884   14.0406 C   0  0  0  0  0  0  0  0  0  0  0  0
   12.2007   -2.4553   14.1888 C   0  0  0  0  0  0  0  0  0  0  0  0
   11.9948   -3.0242   15.4369 C   0  0  0  0  0  0  0  0  0  0  0  0
   12.7044   -2.5502   16.5282 C   0  0  0  0  0  0  0  0  0  0  0  0
   13.5234   -1.4275   16.4090 C   0  0  0  0  0  0  0  0  0  0  0  0
   16.4676   -2.5162   14.3382 C   0  0  0  0  0  0  0  0  0  0  0  0
   18.0252   -6.6112   20.0080 H   0  0  0  0  0  0  0  0  0  0  0  0
   17.0565   -5.4277   20.9034 H   0  0  0  0  0  0  0  0  0  0  0  0
   18.8116   -5.2400   20.8029 H   0  0  0  0  0  0  0  0  0  0  0  0
   18.7025   -4.8707   18.3888 H   0  0  0  0  0  0  0  0  0  0  0  0
   17.7601   -3.6545   19.2393 H   0  0  0  0  0  0  0  0  0  0  0  0
   16.2579   -6.1267   18.4257 H   0  0  0  0  0  0  0  0  0  0  0  0
   15.5922   -3.1447   18.1216 H   0  0  0  0  0  0  0  0  0  0  0  0
   14.5561   -4.4807   17.6501 H   0  0  0  0  0  0  0  0  0  0  0  0
   13.8136   -3.6545   19.7900 H   0  0  0  0  0  0  0  0  0  0  0  0
   14.5166   -5.2562   20.0554 H   0  0  0  0  0  0  0  0  0  0  0  0
   15.4266   -3.7921   20.4911 H   0  0  0  0  0  0  0  0  0  0  0  0
   17.4206   -3.2700   16.9258 H   0  0  0  0  0  0  0  0  0  0  0  0
   17.6731   -4.3177   14.1529 H   0  0  0  0  0  0  0  0  0  0  0  0
   19.6722   -3.1315   14.1789 H   0  0  0  0  0  0  0  0  0  0  0  0
   19.2389   -2.2739   15.6633 H   0  0  0  0  0  0  0  0  0  0  0  0
   18.4350   -1.6307   12.7948 H   0  0  0  0  0  0  0  0  0  0  0  0
   19.0627   -0.5167   14.0014 H   0  0  0  0  0  0  0  0  0  0  0  0
   17.2321   -1.1105   16.3967 H   0  0  0  0  0  0  0  0  0  0  0  0
   17.7339    0.3546   15.5507 H   0  0  0  0  0  0  0  0  0  0  0  0
   13.6795    2.1252   15.3753 H   0  0  0  0  0  0  0  0  0  0  0  0
   12.4938    0.9316   15.5526 H   0  0  0  0  0  0  0  0  0  0  0  0
   12.3711    2.5457   13.5272 H   0  0  0  0  0  0  0  0  0  0  0  0
   13.8311    1.7955   12.8605 H   0  0  0  0  0  0  0  0  0  0  0  0
   12.3123    0.8840   12.9795 H   0  0  0  0  0  0  0  0  0  0  0  0
   13.3246   -1.0410   13.0395 H   0  0  0  0  0  0  0  0  0  0  0  0
   11.7099   -2.8833   13.3212 H   0  0  0  0  0  0  0  0  0  0  0  0
   11.3278   -3.8742   15.5464 H   0  0  0  0  0  0  0  0  0  0  0  0
   12.6192   -3.0677   17.4783 H   0  0  0  0  0  0  0  0  0  0  0  0
   14.0302   -1.0681   17.3004 H   0  0  0  0  0  0  0  0  0  0  0  0
   15.5895   -2.6085   14.9761 H   0  0  0  0  0  0  0  0  0  0  0  0
   16.1601   -2.8031   13.3255 H   0  0  0  0  0  0  0  0  0  0  0  0
  1  2  1  0
  2  3  1  0
  3  4  1  0
  4  5  1  0
  3  6  1  0
  6  7  2  0
  6  8  1  0
  8  9  1  0
  9 10  1  0
 10 11  1  0
 11 12  1  0
 12 13  1  0
 13 14  1  0
 14 15  2  0
 14 16  1  0
 16 17  1  0
 17 18  1  0
 16 19  1  0
 19 20  2  0
 20 21  1  0
 21 22  2  0
 22 23  1  0
 23 24  2  0
 12 25  1  0
 25  9  1  0
 24 19  1  0
  1 26  1  0
  1 27  1  0
  1 28  1  0
  2 29  1  0
  2 30  1  0
  3 31  1  0
  4 32  1  0
  4 33  1  0
  5 34  1  0
  5 35  1  0
  5 36  1  0
  8 37  1  0
  9 38  1  0
 10 39  1  0
 10 40  1  0
 11 41  1  0
 11 42  1  0
 13 43  1  0
 13 44  1  0
 17 45  1  0
 17 46  1  0
 18 47  1  0
 18 48  1  0
 18 49  1  0
 20 50  1  0
 21 51  1  0
 22 52  1  0
 23 53  1  0
 24 54  1  0
 25 55  1  0
 25 56  1  0
M  END
>  <Energy>  (1403) 
152.53329183673526

>  <compound_id>  (1403) 
87629

>  <target_id>  (1403) 
1

>  <reference_id>  (1403) 
97

>  <inspiration_ids>  (1403) 
[97, 27]

>  <energy_score>  (1403) 
27.451459425020005

>  <distance_score>  (1403) 
1.9307589266401164

>  <path>  (1403) 
/opt/xchem-fragalysis-2/maxwin/BulkDock/SCRATCH/511017/C87629-P97/C87629-P97.minimised.mol

>  <scratch_subdir>  (1403) 
/opt/xchem-fragalysis-2/maxwin/BulkDock/SCRATCH/511017/C87629-P97

>  <fragmenstein_runtime>  (1403) 
44.40995526313782

>  <fragmenstein_outcome>  (1403) 
too moved

>  <fragmenstein_mode>  (1403) 
expansion

>  <fragmenstein_error>  (1403) 


$$$$
C87629-P27
     RDKit          3D

 56 57  0  0  0  0  0  0  0  0999 V2000
   17.9218   -5.3604   19.9417 C   0  0  0  0  0  0  0  0  0  0  0  0
   16.4094   -5.4808   20.0462 C   0  0  0  0  0  0  0  0  0  0  0  0
   15.5764   -4.3129   19.4875 C   0  0  0  0  0  0  0  0  0  0  0  0
   15.9731   -2.9349   20.0341 C   0  0  0  0  0  0  0  0  0  0  0  0
   14.9257   -1.8768   19.7151 C   0  0  0  0  0  0  0  0  0  0  0  0
   15.4573   -4.3586   17.9492 C   0  0  0  0  0  0  0  0  0  0  0  0
   14.4101   -4.7123   17.4892 O   0  0  0  0  0  0  0  0  0  0  0  0
   16.6803   -3.9897   17.3095 N   0  0  0  0  0  0  0  0  0  0  0  0
   17.0127   -3.8347   15.9004 C   0  0  0  0  0  0  0  0  0  0  0  0
   18.4693   -3.4529   15.7156 C   0  0  0  0  0  0  0  0  0  0  0  0
   18.4408   -1.9493   15.9435 C   0  0  0  0  0  0  0  0  0  0  0  0
   17.2000   -1.4887   15.3040 N   0  0  0  0  0  0  0  0  0  0  0  0
   16.6173   -0.3300   16.0149 C   0  0  0  0  0  0  0  0  0  0  0  0
   15.8242    0.6676   15.1299 C   0  0  0  0  0  0  0  0  0  0  0  0
   15.8227    1.8274   15.4738 O   0  0  0  0  0  0  0  0  0  0  0  0
   15.2305    0.0363   13.9961 N   0  0  0  0  0  0  0  0  0  0  0  0
   14.4767    0.6465   12.7567 C   0  0  0  0  0  0  0  0  0  0  0  0
   14.8401   -0.0748   11.4632 C   0  0  0  0  0  0  0  0  0  0  0  0
   13.8182   -0.4405   14.3285 C   0  0  0  0  0  0  0  0  0  0  0  0
   13.3804   -1.6740   13.8107 C   0  0  0  0  0  0  0  0  0  0  0  0
   12.1394   -2.1995   14.1641 C   0  0  0  0  0  0  0  0  0  0  0  0
   11.3225   -1.5098   15.0496 C   0  0  0  0  0  0  0  0  0  0  0  0
   11.7577   -0.3108   15.6041 C   0  0  0  0  0  0  0  0  0  0  0  0
   13.0138    0.2059   15.2829 C   0  0  0  0  0  0  0  0  0  0  0  0
   16.2803   -2.6476   15.2628 C   0  0  0  0  0  0  0  0  0  0  0  0
   18.2637   -5.4152   18.9052 H   0  0  0  0  0  0  0  0  0  0  0  0
   18.3942   -6.1911   20.4773 H   0  0  0  0  0  0  0  0  0  0  0  0
   18.2891   -4.4321   20.3875 H   0  0  0  0  0  0  0  0  0  0  0  0
   16.1593   -5.5961   21.1089 H   0  0  0  0  0  0  0  0  0  0  0  0
   16.1013   -6.4131   19.5563 H   0  0  0  0  0  0  0  0  0  0  0  0
   14.5523   -4.5004   19.8483 H   0  0  0  0  0  0  0  0  0  0  0  0
   16.0765   -2.9959   21.1246 H   0  0  0  0  0  0  0  0  0  0  0  0
   16.9402   -2.5971   19.6495 H   0  0  0  0  0  0  0  0  0  0  0  0
   14.7725   -1.7651   18.6382 H   0  0  0  0  0  0  0  0  0  0  0  0
   15.2349   -0.9061   20.1154 H   0  0  0  0  0  0  0  0  0  0  0  0
   13.9709   -2.1413   20.1769 H   0  0  0  0  0  0  0  0  0  0  0  0
   17.3323   -3.6655   18.0091 H   0  0  0  0  0  0  0  0  0  0  0  0
   16.7578   -4.7758   15.4040 H   0  0  0  0  0  0  0  0  0  0  0  0
   18.7905   -3.6714   14.6896 H   0  0  0  0  0  0  0  0  0  0  0  0
   19.1455   -3.9638   16.4082 H   0  0  0  0  0  0  0  0  0  0  0  0
   19.3160   -1.4586   15.5065 H   0  0  0  0  0  0  0  0  0  0  0  0
   18.4406   -1.7497   17.0233 H   0  0  0  0  0  0  0  0  0  0  0  0
   15.9924   -0.6291   16.8636 H   0  0  0  0  0  0  0  0  0  0  0  0
   17.4418    0.2714   16.4236 H   0  0  0  0  0  0  0  0  0  0  0  0
   14.9619    1.6336   12.6839 H   0  0  0  0  0  0  0  0  0  0  0  0
   13.4111    0.9382   12.8036 H   0  0  0  0  0  0  0  0  0  0  0  0
   15.9190   -0.2551   11.4081 H   0  0  0  0  0  0  0  0  0  0  0  0
   14.3358   -1.0360   11.3537 H   0  0  0  0  0  0  0  0  0  0  0  0
   14.5609    0.5446   10.6050 H   0  0  0  0  0  0  0  0  0  0  0  0
   14.0168   -2.2430   13.1383 H   0  0  0  0  0  0  0  0  0  0  0  0
   11.7986   -3.1376   13.7329 H   0  0  0  0  0  0  0  0  0  0  0  0
   10.3351   -1.9006   15.2734 H   0  0  0  0  0  0  0  0  0  0  0  0
   11.1035    0.2438   16.2639 H   0  0  0  0  0  0  0  0  0  0  0  0
   13.3246    1.1445   15.7354 H   0  0  0  0  0  0  0  0  0  0  0  0
   15.3163   -2.4694   15.7487 H   0  0  0  0  0  0  0  0  0  0  0  0
   16.0985   -2.8718   14.2067 H   0  0  0  0  0  0  0  0  0  0  0  0
  1  2  1  0
  2  3  1  0
  3  4  1  0
  4  5  1  0
  3  6  1  0
  6  7  2  0
  6  8  1  0
  8  9  1  0
  9 10  1  0
 10 11  1  0
 11 12  1  0
 12 13  1  0
 13 14  1  0
 14 15  2  0
 14 16  1  0
 16 17  1  0
 17 18  1  0
 16 19  1  0
 19 20  2  0
 20 21  1  0
 21 22  2  0
 22 23  1  0
 23 24  2  0
 12 25  1  0
 25  9  1  0
 24 19  1  0
  1 26  1  0
  1 27  1  0
  1 28  1  0
  2 29  1  0
  2 30  1  0
  3 31  1  0
  4 32  1  0
  4 33  1  0
  5 34  1  0
  5 35  1  0
  5 36  1  0
  8 37  1  0
  9 38  1  0
 10 39  1  0
 10 40  1  0
 11 41  1  0
 11 42  1  0
 13 43  1  0
 13 44  1  0
 17 45  1  0
 17 46  1  0
 18 47  1  0
 18 48  1  0
 18 49  1  0
 20 50  1  0
 21 51  1  0
 22 52  1  0
 23 53  1  0
 24 54  1  0
 25 55  1  0
 25 56  1  0
M  END
>  <Energy>  (1404) 
147.11364487521249

>  <compound_id>  (1404) 
87629

>  <target_id>  (1404) 
1

>  <reference_id>  (1404) 
27

>  <inspiration_ids>  (1404) 
[97, 27]

>  <energy_score>  (1404) 
22.03181246349547

>  <distance_score>  (1404) 
2.47788362336234

>  <path>  (1404) 
/opt/xchem-fragalysis-2/maxwin/BulkDock/SCRATCH/511017/C87629-P27/C87629-P27.minimised.mol

>  <scratch_subdir>  (1404) 
/opt/xchem-fragalysis-2/maxwin/BulkDock/SCRATCH/511017/C87629-P27

>  <fragmenstein_runtime>  (1404) 
43.38006854057312

>  <fragmenstein_outcome>  (1404) 
too moved

>  <fragmenstein_mode>  (1404) 
expansion

>  <fragmenstein_error>  (1404) 


$$$$
C87622-P97
     RDKit          3D

 50 51  0  0  0  0  0  0  0  0999 V2000
   14.9770   -0.2450   19.7116 C   0  0  0  0  0  0  0  0  0  0  0  0
   15.2689    1.1082   19.0784 C   0  0  0  0  0  0  0  0  0  0  0  0
   16.1009    0.9495   17.8021 C   0  0  0  0  0  0  0  0  0  0  0  0
   16.2946    2.2902   17.0806 C   0  0  0  0  0  0  0  0  0  0  0  0
   17.3027    2.2080   15.9434 C   0  0  0  0  0  0  0  0  0  0  0  0
   15.4967   -0.1851   16.9611 C   0  0  0  0  0  0  0  0  0  0  0  0
   16.0536   -1.2063   16.8547 O   0  0  0  0  0  0  0  0  0  0  0  0
   14.0950    0.2565   16.4489 N   0  0  0  0  0  0  0  0  0  0  0  0
   13.1242   -0.4489   15.6099 C   0  0  0  0  0  0  0  0  0  0  0  0
   13.5156   -1.8545   15.1067 C   0  0  0  0  0  0  0  0  0  0  0  0
   14.0661   -1.1973   13.8094 C   0  0  0  0  0  0  0  0  0  0  0  0
   15.5457   -0.8190   13.6689 C   0  0  0  0  0  0  0  0  0  0  0  0
   16.4296   -1.9963   13.2448 C   0  0  0  0  0  0  0  0  0  0  0  0
   16.6516   -3.0055   14.2510 N   0  0  0  0  0  0  0  0  0  0  0  0
   17.7553   -3.1157   15.3490 C   0  0  0  0  0  0  0  0  0  0  0  0
   18.6024   -2.3658   15.6504 O   0  0  0  0  0  0  0  0  0  0  0  0
   17.6162   -4.5010   16.0115 C   0  0  0  0  0  0  0  0  0  0  0  0
   16.8408   -4.4974   17.2956 C   0  0  0  0  0  0  0  0  0  0  0  0
   17.3939   -4.6292   18.6144 C   0  0  0  0  0  0  0  0  0  0  0  0
   16.5485   -4.6375   19.6433 N   0  0  0  0  0  0  0  0  0  0  0  0
   15.0164   -4.4074   19.0547 S   0  0  0  0  0  0  0  0  0  0  0  0
   15.4656   -4.4088   17.4064 C   0  0  0  0  0  0  0  0  0  0  0  0
   13.1402    0.0015   14.1387 C   0  0  0  0  0  0  0  0  0  0  0  0
   14.4557   -0.1039   20.6642 H   0  0  0  0  0  0  0  0  0  0  0  0
   14.3517   -0.8825   19.0862 H   0  0  0  0  0  0  0  0  0  0  0  0
   15.9064   -0.7837   19.9259 H   0  0  0  0  0  0  0  0  0  0  0  0
   14.3286    1.6293   18.8696 H   0  0  0  0  0  0  0  0  0  0  0  0
   15.8177    1.7298   19.7961 H   0  0  0  0  0  0  0  0  0  0  0  0
   17.0980    0.5978   18.1063 H   0  0  0  0  0  0  0  0  0  0  0  0
   15.3518    2.6868   16.6913 H   0  0  0  0  0  0  0  0  0  0  0  0
   16.6623    3.0297   17.8033 H   0  0  0  0  0  0  0  0  0  0  0  0
   17.4779    3.2043   15.5248 H   0  0  0  0  0  0  0  0  0  0  0  0
   18.2626    1.8160   16.2940 H   0  0  0  0  0  0  0  0  0  0  0  0
   16.9420    1.5687   15.1352 H   0  0  0  0  0  0  0  0  0  0  0  0
   13.9573    1.2395   16.6454 H   0  0  0  0  0  0  0  0  0  0  0  0
   12.1328   -0.4106   16.0721 H   0  0  0  0  0  0  0  0  0  0  0  0
   14.2304   -2.4126   15.7045 H   0  0  0  0  0  0  0  0  0  0  0  0
   12.6470   -2.5014   14.9289 H   0  0  0  0  0  0  0  0  0  0  0  0
   13.7381   -1.7252   12.9032 H   0  0  0  0  0  0  0  0  0  0  0  0
   15.6213   -0.0635   12.8757 H   0  0  0  0  0  0  0  0  0  0  0  0
   15.9513   -0.3537   14.5598 H   0  0  0  0  0  0  0  0  0  0  0  0
   17.4170   -1.6091   12.9708 H   0  0  0  0  0  0  0  0  0  0  0  0
   16.0070   -2.4978   12.3682 H   0  0  0  0  0  0  0  0  0  0  0  0
   16.1323   -3.8731   14.2047 H   0  0  0  0  0  0  0  0  0  0  0  0
   18.6347   -4.8680   16.1935 H   0  0  0  0  0  0  0  0  0  0  0  0
   17.1726   -5.2197   15.3131 H   0  0  0  0  0  0  0  0  0  0  0  0
   18.4473   -4.7278   18.8466 H   0  0  0  0  0  0  0  0  0  0  0  0
   14.7238   -4.3238   16.6290 H   0  0  0  0  0  0  0  0  0  0  0  0
   13.5458    0.9986   13.9402 H   0  0  0  0  0  0  0  0  0  0  0  0
   12.1564   -0.0645   13.6567 H   0  0  0  0  0  0  0  0  0  0  0  0
  1  2  1  0
  2  3  1  0
  3  4  1  0
  4  5  1  0
  3  6  1  0
  6  7  2  0
  6  8  1  0
  8  9  1  0
  9 10  1  0
 10 11  1  0
 11 12  1  0
 12 13  1  0
 13 14  1  0
 14 15  1  0
 15 16  2  0
 15 17  1  0
 17 18  1  0
 18 19  1  0
 19 20  2  0
 20 21  1  0
 21 22  1  0
 11 23  1  0
 23  9  1  0
 22 18  2  0
  1 24  1  0
  1 25  1  0
  1 26  1  0
  2 27  1  0
  2 28  1  0
  3 29  1  0
  4 30  1  0
  4 31  1  0
  5 32  1  0
  5 33  1  0
  5 34  1  0
  8 35  1  0
  9 36  1  0
 10 37  1  0
 10 38  1  0
 11 39  1  0
 12 40  1  0
 12 41  1  0
 13 42  1  0
 13 43  1  0
 14 44  1  0
 17 45  1  0
 17 46  1  0
 19 47  1  0
 22 48  1  0
 23 49  1  0
 23 50  1  0
M  END
>  <Energy>  (1405) 
39.229079408890541

>  <compound_id>  (1405) 
87622

>  <target_id>  (1405) 
1

>  <reference_id>  (1405) 
97

>  <inspiration_ids>  (1405) 
[97, 27]

>  <energy_score>  (1405) 
-11.745197178032297

>  <distance_score>  (1405) 
2.566892781156451

>  <path>  (1405) 
/opt/xchem-fragalysis-2/maxwin/BulkDock/SCRATCH/511017/C87622-P97/C87622-P97.minimised.mol

>  <scratch_subdir>  (1405) 
/opt/xchem-fragalysis-2/maxwin/BulkDock/SCRATCH/511017/C87622-P97

>  <fragmenstein_runtime>  (1405) 
13.0611252784729

>  <fragmenstein_outcome>  (1405) 
too moved

>  <fragmenstein_mode>  (1405) 
expansion

>  <fragmenstein_error>  (1405) 


$$$$
C87622-P27
     RDKit          3D

 50 51  0  0  0  0  0  0  0  0999 V2000
   15.8794    1.4655   16.7909 C   0  0  0  0  0  0  0  0  0  0  0  0
   15.1866    1.7397   18.1111 C   0  0  0  0  0  0  0  0  0  0  0  0
   14.6526    0.4926   18.8298 C   0  0  0  0  0  0  0  0  0  0  0  0
   15.6140   -0.0110   19.9336 C   0  0  0  0  0  0  0  0  0  0  0  0
   17.0235   -0.3601   19.4746 C   0  0  0  0  0  0  0  0  0  0  0  0
   14.1909   -0.6657   17.9121 C   0  0  0  0  0  0  0  0  0  0  0  0
   14.5972   -1.7503   18.0413 O   0  0  0  0  0  0  0  0  0  0  0  0
   13.1313   -0.0995   16.9283 N   0  0  0  0  0  0  0  0  0  0  0  0
   12.4166   -0.7464   15.8244 C   0  0  0  0  0  0  0  0  0  0  0  0
   12.9946   -2.0711   15.2730 C   0  0  0  0  0  0  0  0  0  0  0  0
   13.7384   -1.2621   14.1730 C   0  0  0  0  0  0  0  0  0  0  0  0
   15.2068   -0.8774   14.3923 C   0  0  0  0  0  0  0  0  0  0  0  0
   16.1815   -1.8422   13.7167 C   0  0  0  0  0  0  0  0  0  0  0  0
   16.5508   -2.9704   14.5324 N   0  0  0  0  0  0  0  0  0  0  0  0
   17.4730   -3.0535   15.7858 C   0  0  0  0  0  0  0  0  0  0  0  0
   18.1316   -2.2333   16.2974 O   0  0  0  0  0  0  0  0  0  0  0  0
   17.4781   -4.5147   16.2730 C   0  0  0  0  0  0  0  0  0  0  0  0
   16.8352   -4.6688   17.6151 C   0  0  0  0  0  0  0  0  0  0  0  0
   17.4851   -5.0672   18.8294 C   0  0  0  0  0  0  0  0  0  0  0  0
   16.7398   -5.1587   19.9286 N   0  0  0  0  0  0  0  0  0  0  0  0
   15.1974   -4.6837   19.5488 S   0  0  0  0  0  0  0  0  0  0  0  0
   15.4980   -4.4562   17.8837 C   0  0  0  0  0  0  0  0  0  0  0  0
   12.7248   -0.1231   14.4513 C   0  0  0  0  0  0  0  0  0  0  0  0
   15.1540    1.3315   15.9886 H   0  0  0  0  0  0  0  0  0  0  0  0
   16.5540    0.6079   16.8395 H   0  0  0  0  0  0  0  0  0  0  0  0
   16.4814    2.3369   16.5092 H   0  0  0  0  0  0  0  0  0  0  0  0
   15.8680    2.2879   18.7732 H   0  0  0  0  0  0  0  0  0  0  0  0
   14.3563    2.4321   17.9206 H   0  0  0  0  0  0  0  0  0  0  0  0
   13.7587    0.8070   19.3752 H   0  0  0  0  0  0  0  0  0  0  0  0
   15.6892    0.7592   20.7120 H   0  0  0  0  0  0  0  0  0  0  0  0
   15.1777   -0.8923   20.4210 H   0  0  0  0  0  0  0  0  0  0  0  0
   17.5993   -0.7589   20.3164 H   0  0  0  0  0  0  0  0  0  0  0  0
   17.0188   -1.1190   18.6882 H   0  0  0  0  0  0  0  0  0  0  0  0
   17.5549    0.5212   19.1044 H   0  0  0  0  0  0  0  0  0  0  0  0
   13.0766    0.9082   17.0319 H   0  0  0  0  0  0  0  0  0  0  0  0
   11.3470   -0.7977   16.0539 H   0  0  0  0  0  0  0  0  0  0  0  0
   13.6232   -2.6649   15.9341 H   0  0  0  0  0  0  0  0  0  0  0  0
   12.2188   -2.7338   14.8678 H   0  0  0  0  0  0  0  0  0  0  0  0
   13.5944   -1.6771   13.1664 H   0  0  0  0  0  0  0  0  0  0  0  0
   15.4387   -0.8147   15.4545 H   0  0  0  0  0  0  0  0  0  0  0  0
   15.3711    0.1100   13.9445 H   0  0  0  0  0  0  0  0  0  0  0  0
   17.1159   -1.3049   13.5204 H   0  0  0  0  0  0  0  0  0  0  0  0
   15.7978   -2.2204   12.7646 H   0  0  0  0  0  0  0  0  0  0  0  0
   16.1895   -3.8938   14.3148 H   0  0  0  0  0  0  0  0  0  0  0  0
   16.9887   -5.1851   15.5593 H   0  0  0  0  0  0  0  0  0  0  0  0
   18.5274   -4.8328   16.3124 H   0  0  0  0  0  0  0  0  0  0  0  0
   18.5365   -5.3056   18.9325 H   0  0  0  0  0  0  0  0  0  0  0  0
   14.7078   -4.1443   17.2188 H   0  0  0  0  0  0  0  0  0  0  0  0
   11.8629   -0.1381   13.7716 H   0  0  0  0  0  0  0  0  0  0  0  0
   13.1247    0.8956   14.4569 H   0  0  0  0  0  0  0  0  0  0  0  0
  1  2  1  0
  2  3  1  0
  3  4  1  0
  4  5  1  0
  3  6  1  0
  6  7  2  0
  6  8  1  0
  8  9  1  0
  9 10  1  0
 10 11  1  0
 11 12  1  0
 12 13  1  0
 13 14  1  0
 14 15  1  0
 15 16  2  0
 15 17  1  0
 17 18  1  0
 18 19  1  0
 19 20  2  0
 20 21  1  0
 21 22  1  0
 11 23  1  0
 23  9  1  0
 22 18  2  0
  1 24  1  0
  1 25  1  0
  1 26  1  0
  2 27  1  0
  2 28  1  0
  3 29  1  0
  4 30  1  0
  4 31  1  0
  5 32  1  0
  5 33  1  0
  5 34  1  0
  8 35  1  0
  9 36  1  0
 10 37  1  0
 10 38  1  0
 11 39  1  0
 12 40  1  0
 12 41  1  0
 13 42  1  0
 13 43  1  0
 14 44  1  0
 17 45  1  0
 17 46  1  0
 19 47  1  0
 22 48  1  0
 23 49  1  0
 23 50  1  0
M  END
>  <Energy>  (1406) 
39.75358141667752

>  <compound_id>  (1406) 
87622

>  <target_id>  (1406) 
1

>  <reference_id>  (1406) 
27

>  <inspiration_ids>  (1406) 
[97, 27]

>  <energy_score>  (1406) 
-11.220695170245754

>  <distance_score>  (1406) 
2.4537517739742003

>  <path>  (1406) 
/opt/xchem-fragalysis-2/maxwin/BulkDock/SCRATCH/511017/C87622-P27/C87622-P27.minimised.mol

>  <scratch_subdir>  (1406) 
/opt/xchem-fragalysis-2/maxwin/BulkDock/SCRATCH/511017/C87622-P27

>  <fragmenstein_runtime>  (1406) 
12.914313316345215

>  <fragmenstein_outcome>  (1406) 
too moved

>  <fragmenstein_mode>  (1406) 
expansion

>  <fragmenstein_error>  (1406) 


$$$$
C87624-P97
     RDKit          3D

 54 55  0  0  0  0  0  0  0  0999 V2000
   12.4149    0.9444   15.6983 C   0  0  0  0  0  0  0  0  0  0  0  0
   13.5881    0.3130   16.4175 C   0  0  0  0  0  0  0  0  0  0  0  0
   13.5583   -1.2228   16.5664 C   0  0  0  0  0  0  0  0  0  0  0  0
   13.1948   -1.9882   15.2884 C   0  0  0  0  0  0  0  0  0  0  0  0
   11.7384   -2.4341   15.2213 C   0  0  0  0  0  0  0  0  0  0  0  0
   14.9178   -1.6473   17.1938 C   0  0  0  0  0  0  0  0  0  0  0  0
   15.8144   -0.9013   17.2572 O   0  0  0  0  0  0  0  0  0  0  0  0
   14.7687   -3.0918   17.7495 N   0  0  0  0  0  0  0  0  0  0  0  0
   15.6720   -3.8872   18.5910 C   0  0  0  0  0  0  0  0  0  0  0  0
   17.0848   -3.9728   18.0345 C   0  0  0  0  0  0  0  0  0  0  0  0
   17.1930   -4.7875   16.7447 C   0  0  0  0  0  0  0  0  0  0  0  0
   17.1582   -3.9756   15.5579 N   0  0  0  0  0  0  0  0  0  0  0  0
   18.1799   -2.9398   15.0148 C   0  0  0  0  0  0  0  0  0  0  0  0
   19.1667   -2.5322   15.4865 O   0  0  0  0  0  0  0  0  0  0  0  0
   17.6417   -2.4618   13.6741 C   0  0  0  0  0  0  0  0  0  0  0  0
   16.4569   -1.5198   13.8070 C   0  0  0  0  0  0  0  0  0  0  0  0
   16.7671   -0.0219   14.0498 C   0  0  0  0  0  0  0  0  0  0  0  0
   15.5383    0.2800   13.1699 C   0  0  0  0  0  0  0  0  0  0  0  0
   15.7874   -1.0760   12.4826 C   0  0  0  0  0  0  0  0  0  0  0  0
   15.6659   -3.3542   20.0498 C   0  0  0  0  0  0  0  0  0  0  0  0
   15.7145   -4.8140   20.5273 C   0  0  0  0  0  0  0  0  0  0  0  0
   15.1098   -5.2051   19.1730 C   0  0  0  0  0  0  0  0  0  0  0  0
   12.4573    2.0342   15.7938 H   0  0  0  0  0  0  0  0  0  0  0  0
   12.4285    0.7117   14.6295 H   0  0  0  0  0  0  0  0  0  0  0  0
   11.4547    0.6090   16.0933 H   0  0  0  0  0  0  0  0  0  0  0  0
   14.4988    0.6319   15.9020 H   0  0  0  0  0  0  0  0  0  0  0  0
   13.6604    0.7576   17.4181 H   0  0  0  0  0  0  0  0  0  0  0  0
   12.7965   -1.4556   17.3009 H   0  0  0  0  0  0  0  0  0  0  0  0
   13.8112   -2.8864   15.2266 H   0  0  0  0  0  0  0  0  0  0  0  0
   13.4150   -1.3985   14.3965 H   0  0  0  0  0  0  0  0  0  0  0  0
   11.5444   -2.9371   14.2687 H   0  0  0  0  0  0  0  0  0  0  0  0
   11.5190   -3.1466   16.0214 H   0  0  0  0  0  0  0  0  0  0  0  0
   11.0494   -1.5903   15.3061 H   0  0  0  0  0  0  0  0  0  0  0  0
   13.8235   -3.4225   17.5852 H   0  0  0  0  0  0  0  0  0  0  0  0
   17.7391   -4.4612   18.7687 H   0  0  0  0  0  0  0  0  0  0  0  0
   17.5070   -2.9698   17.8963 H   0  0  0  0  0  0  0  0  0  0  0  0
   16.4136   -5.5482   16.6548 H   0  0  0  0  0  0  0  0  0  0  0  0
   18.1672   -5.2883   16.7285 H   0  0  0  0  0  0  0  0  0  0  0  0
   16.3684   -4.0365   14.9251 H   0  0  0  0  0  0  0  0  0  0  0  0
   17.3689   -3.3394   13.0816 H   0  0  0  0  0  0  0  0  0  0  0  0
   18.4648   -1.9832   13.1292 H   0  0  0  0  0  0  0  0  0  0  0  0
   15.7197   -1.9126   14.5093 H   0  0  0  0  0  0  0  0  0  0  0  0
   17.7119    0.3242   13.6136 H   0  0  0  0  0  0  0  0  0  0  0  0
   16.7145    0.3242   15.0832 H   0  0  0  0  0  0  0  0  0  0  0  0
   14.5880    0.3438   13.6989 H   0  0  0  0  0  0  0  0  0  0  0  0
   15.6307    1.1566   12.5227 H   0  0  0  0  0  0  0  0  0  0  0  0
   16.4670   -1.0176   11.6243 H   0  0  0  0  0  0  0  0  0  0  0  0
   14.8927   -1.6325   12.1914 H   0  0  0  0  0  0  0  0  0  0  0  0
   16.5152   -2.7339   20.3519 H   0  0  0  0  0  0  0  0  0  0  0  0
   14.7433   -2.8374   20.3448 H   0  0  0  0  0  0  0  0  0  0  0  0
   16.7252   -5.1998   20.6997 H   0  0  0  0  0  0  0  0  0  0  0  0
   15.1000   -5.0447   21.4017 H   0  0  0  0  0  0  0  0  0  0  0  0
   15.5178   -6.1350   18.7736 H   0  0  0  0  0  0  0  0  0  0  0  0
   14.0154   -5.2563   19.1876 H   0  0  0  0  0  0  0  0  0  0  0  0
  1  2  1  0
  2  3  1  0
  3  4  1  0
  4  5  1  0
  3  6  1  0
  6  7  2  0
  6  8  1  0
  8  9  1  0
  9 10  1  0
 10 11  1  0
 11 12  1  0
 12 13  1  0
 13 14  2  0
 13 15  1  0
 15 16  1  0
 16 17  1  0
 17 18  1  0
 18 19  1  0
  9 20  1  0
 20 21  1  0
 21 22  1  0
 22  9  1  0
 19 16  1  0
  1 23  1  0
  1 24  1  0
  1 25  1  0
  2 26  1  0
  2 27  1  0
  3 28  1  0
  4 29  1  0
  4 30  1  0
  5 31  1  0
  5 32  1  0
  5 33  1  0
  8 34  1  0
 10 35  1  0
 10 36  1  0
 11 37  1  0
 11 38  1  0
 12 39  1  0
 15 40  1  0
 15 41  1  0
 16 42  1  0
 17 43  1  0
 17 44  1  0
 18 45  1  0
 18 46  1  0
 19 47  1  0
 19 48  1  0
 20 49  1  0
 20 50  1  0
 21 51  1  0
 21 52  1  0
 22 53  1  0
 22 54  1  0
M  END
>  <Energy>  (1407) 
34.792789362293362

>  <compound_id>  (1407) 
87624

>  <target_id>  (1407) 
1

>  <reference_id>  (1407) 
97

>  <inspiration_ids>  (1407) 
[97, 27]

>  <energy_score>  (1407) 
-6.130687104438586

>  <distance_score>  (1407) 
2.788184499144293

>  <path>  (1407) 
/opt/xchem-fragalysis-2/maxwin/BulkDock/SCRATCH/511017/C87624-P97/C87624-P97.minimised.mol

>  <scratch_subdir>  (1407) 
/opt/xchem-fragalysis-2/maxwin/BulkDock/SCRATCH/511017/C87624-P97

>  <fragmenstein_runtime>  (1407) 
8.21288013458252

>  <fragmenstein_outcome>  (1407) 
too moved

>  <fragmenstein_mode>  (1407) 
expansion

>  <fragmenstein_error>  (1407) 


$$$$
C87624-P27
     RDKit          3D

 54 55  0  0  0  0  0  0  0  0999 V2000
   13.2098    1.2758   16.4112 C   0  0  0  0  0  0  0  0  0  0  0  0
   13.6502    0.0179   17.1407 C   0  0  0  0  0  0  0  0  0  0  0  0
   13.0846   -1.3327   16.6447 C   0  0  0  0  0  0  0  0  0  0  0  0
   12.3231   -1.2648   15.3018 C   0  0  0  0  0  0  0  0  0  0  0  0
   11.5553   -2.5452   14.9915 C   0  0  0  0  0  0  0  0  0  0  0  0
   14.2333   -2.3553   16.5660 C   0  0  0  0  0  0  0  0  0  0  0  0
   14.5867   -2.7876   15.5397 O   0  0  0  0  0  0  0  0  0  0  0  0
   14.7990   -2.5735   18.0010 N   0  0  0  0  0  0  0  0  0  0  0  0
   15.8754   -3.4601   18.4809 C   0  0  0  0  0  0  0  0  0  0  0  0
   15.9685   -4.7385   17.6568 C   0  0  0  0  0  0  0  0  0  0  0  0
   17.1214   -4.7801   16.6448 C   0  0  0  0  0  0  0  0  0  0  0  0
   16.9751   -3.8618   15.5524 N   0  0  0  0  0  0  0  0  0  0  0  0
   18.0396   -3.2065   14.6417 C   0  0  0  0  0  0  0  0  0  0  0  0
   19.2050   -3.2515   14.6873 O   0  0  0  0  0  0  0  0  0  0  0  0
   17.2990   -2.3848   13.5828 C   0  0  0  0  0  0  0  0  0  0  0  0
   17.3328   -0.8569   13.7377 C   0  0  0  0  0  0  0  0  0  0  0  0
   16.1139   -0.1694   14.3980 C   0  0  0  0  0  0  0  0  0  0  0  0
   16.8911   -0.2147   15.7266 C   0  0  0  0  0  0  0  0  0  0  0  0
   18.1766   -0.2048   14.8743 C   0  0  0  0  0  0  0  0  0  0  0  0
   17.1786   -2.6976   18.8549 C   0  0  0  0  0  0  0  0  0  0  0  0
   17.3180   -3.6683   20.0440 C   0  0  0  0  0  0  0  0  0  0  0  0
   15.7799   -3.7921   20.0063 C   0  0  0  0  0  0  0  0  0  0  0  0
   12.1271    1.4177   16.4661 H   0  0  0  0  0  0  0  0  0  0  0  0
   13.6780    2.1539   16.8688 H   0  0  0  0  0  0  0  0  0  0  0  0
   13.5104    1.2548   15.3596 H   0  0  0  0  0  0  0  0  0  0  0  0
   14.7410    0.0020   17.1357 H   0  0  0  0  0  0  0  0  0  0  0  0
   13.3957    0.1364   18.1987 H   0  0  0  0  0  0  0  0  0  0  0  0
   12.3836   -1.7300   17.3756 H   0  0  0  0  0  0  0  0  0  0  0  0
   11.5916   -0.4499   15.3105 H   0  0  0  0  0  0  0  0  0  0  0  0
   13.0141   -1.0629   14.4775 H   0  0  0  0  0  0  0  0  0  0  0  0
   12.0743   -3.4448   15.3282 H   0  0  0  0  0  0  0  0  0  0  0  0
   10.5783   -2.5208   15.4761 H   0  0  0  0  0  0  0  0  0  0  0  0
   11.3949   -2.6363   13.9147 H   0  0  0  0  0  0  0  0  0  0  0  0
   14.3016   -1.9799   18.6555 H   0  0  0  0  0  0  0  0  0  0  0  0
   16.1080   -5.6054   18.3146 H   0  0  0  0  0  0  0  0  0  0  0  0
   15.0241   -4.8985   17.1296 H   0  0  0  0  0  0  0  0  0  0  0  0
   18.0979   -4.6199   17.1100 H   0  0  0  0  0  0  0  0  0  0  0  0
   17.1607   -5.7762   16.1907 H   0  0  0  0  0  0  0  0  0  0  0  0
   16.0441   -3.5438   15.2730 H   0  0  0  0  0  0  0  0  0  0  0  0
   16.2669   -2.7234   13.4539 H   0  0  0  0  0  0  0  0  0  0  0  0
   17.7894   -2.6455   12.6341 H   0  0  0  0  0  0  0  0  0  0  0  0
   17.5504   -0.4204   12.7528 H   0  0  0  0  0  0  0  0  0  0  0  0
   15.1734   -0.7101   14.3475 H   0  0  0  0  0  0  0  0  0  0  0  0
   15.9377    0.8508   14.0338 H   0  0  0  0  0  0  0  0  0  0  0  0
   16.7725    0.6521   16.3812 H   0  0  0  0  0  0  0  0  0  0  0  0
   16.7632   -1.1270   16.3119 H   0  0  0  0  0  0  0  0  0  0  0  0
   18.5271    0.8058   14.6280 H   0  0  0  0  0  0  0  0  0  0  0  0
   19.0225   -0.7632   15.2783 H   0  0  0  0  0  0  0  0  0  0  0  0
   18.0053   -2.6959   18.1422 H   0  0  0  0  0  0  0  0  0  0  0  0
   17.0149   -1.6566   19.1655 H   0  0  0  0  0  0  0  0  0  0  0  0
   17.8542   -4.5951   19.8115 H   0  0  0  0  0  0  0  0  0  0  0  0
   17.7362   -3.2400   20.9584 H   0  0  0  0  0  0  0  0  0  0  0  0
   15.3759   -4.7691   20.2867 H   0  0  0  0  0  0  0  0  0  0  0  0
   15.2680   -3.0293   20.6074 H   0  0  0  0  0  0  0  0  0  0  0  0
  1  2  1  0
  2  3  1  0
  3  4  1  0
  4  5  1  0
  3  6  1  0
  6  7  2  0
  6  8  1  0
  8  9  1  0
  9 10  1  0
 10 11  1  0
 11 12  1  0
 12 13  1  0
 13 14  2  0
 13 15  1  0
 15 16  1  0
 16 17  1  0
 17 18  1  0
 18 19  1  0
  9 20  1  0
 20 21  1  0
 21 22  1  0
 22  9  1  0
 19 16  1  0
  1 23  1  0
  1 24  1  0
  1 25  1  0
  2 26  1  0
  2 27  1  0
  3 28  1  0
  4 29  1  0
  4 30  1  0
  5 31  1  0
  5 32  1  0
  5 33  1  0
  8 34  1  0
 10 35  1  0
 10 36  1  0
 11 37  1  0
 11 38  1  0
 12 39  1  0
 15 40  1  0
 15 41  1  0
 16 42  1  0
 17 43  1  0
 17 44  1  0
 18 45  1  0
 18 46  1  0
 19 47  1  0
 19 48  1  0
 20 49  1  0
 20 50  1  0
 21 51  1  0
 21 52  1  0
 22 53  1  0
 22 54  1  0
M  END
>  <Energy>  (1408) 
36.356448538388946

>  <compound_id>  (1408) 
87624

>  <target_id>  (1408) 
1

>  <reference_id>  (1408) 
27

>  <inspiration_ids>  (1408) 
[97, 27]

>  <energy_score>  (1408) 
-4.567027928344032

>  <distance_score>  (1408) 
2.5868791375067794

>  <path>  (1408) 
/opt/xchem-fragalysis-2/maxwin/BulkDock/SCRATCH/511017/C87624-P27/C87624-P27.minimised.mol

>  <scratch_subdir>  (1408) 
/opt/xchem-fragalysis-2/maxwin/BulkDock/SCRATCH/511017/C87624-P27

>  <fragmenstein_runtime>  (1408) 
8.30813455581665

>  <fragmenstein_outcome>  (1408) 
too moved

>  <fragmenstein_mode>  (1408) 
expansion

>  <fragmenstein_error>  (1408) 


$$$$
C87627-P97
     RDKit          3D

 55 56  0  0  0  0  0  0  0  0999 V2000
    8.6405    4.5638   15.3221 C   0  0  0  0  0  0  0  0  0  0  0  0
    9.9686    3.8784   15.0353 C   0  0  0  0  0  0  0  0  0  0  0  0
   10.5812    3.2085   16.2778 C   0  0  0  0  0  0  0  0  0  0  0  0
   10.9486    4.1957   17.4081 C   0  0  0  0  0  0  0  0  0  0  0  0
   11.7289    5.4379   16.9921 C   0  0  0  0  0  0  0  0  0  0  0  0
   11.8022    2.3649   15.8579 C   0  0  0  0  0  0  0  0  0  0  0  0
   12.9023    2.7385   15.9928 O   0  0  0  0  0  0  0  0  0  0  0  0
   11.2494    1.0615   15.1911 N   0  0  0  0  0  0  0  0  0  0  0  0
   11.9487   -0.0085   14.4637 C   0  0  0  0  0  0  0  0  0  0  0  0
   12.7429   -1.0522   15.2888 C   0  0  0  0  0  0  0  0  0  0  0  0
   14.0010   -0.1341   15.1113 C   0  0  0  0  0  0  0  0  0  0  0  0
   15.4347   -0.5618   14.8145 C   0  0  0  0  0  0  0  0  0  0  0  0
   15.7253   -1.9934   15.2207 C   0  0  0  0  0  0  0  0  0  0  0  0
   15.5511   -2.2140   16.6259 N   0  0  0  0  0  0  0  0  0  0  0  0
   16.4889   -1.8989   17.8168 C   0  0  0  0  0  0  0  0  0  0  0  0
   17.5136   -1.3418   17.8451 O   0  0  0  0  0  0  0  0  0  0  0  0
   15.8199   -2.4403   19.0731 C   0  0  0  0  0  0  0  0  0  0  0  0
   15.6437   -3.9551   19.0529 C   0  0  0  0  0  0  0  0  0  0  0  0
   15.1259   -4.4851   20.3841 C   0  0  0  0  0  0  0  0  0  0  0  0
   15.8038   -5.8272   20.4873 C   0  0  0  0  0  0  0  0  0  0  0  0
   17.1464   -5.5537   19.8551 C   0  0  0  0  0  0  0  0  0  0  0  0
   16.9016   -4.6113   18.8076 O   0  0  0  0  0  0  0  0  0  0  0  0
   13.2919    0.4112   13.8474 C   0  0  0  0  0  0  0  0  0  0  0  0
    8.2116    4.9540   14.3935 H   0  0  0  0  0  0  0  0  0  0  0  0
    7.9230    3.8611   15.7574 H   0  0  0  0  0  0  0  0  0  0  0  0
    8.7595    5.4045   16.0113 H   0  0  0  0  0  0  0  0  0  0  0  0
   10.6699    4.6010   14.6018 H   0  0  0  0  0  0  0  0  0  0  0  0
    9.8082    3.1325   14.2494 H   0  0  0  0  0  0  0  0  0  0  0  0
    9.8479    2.5097   16.7004 H   0  0  0  0  0  0  0  0  0  0  0  0
   11.5271    3.6644   18.1742 H   0  0  0  0  0  0  0  0  0  0  0  0
   10.0276    4.5319   17.8989 H   0  0  0  0  0  0  0  0  0  0  0  0
   11.1334    6.0903   16.3472 H   0  0  0  0  0  0  0  0  0  0  0  0
   11.9978    6.0190   17.8807 H   0  0  0  0  0  0  0  0  0  0  0  0
   12.6544    5.1875   16.4679 H   0  0  0  0  0  0  0  0  0  0  0  0
   10.2368    1.0927   15.1734 H   0  0  0  0  0  0  0  0  0  0  0  0
   11.2670   -0.4559   13.7374 H   0  0  0  0  0  0  0  0  0  0  0  0
   12.4146   -1.2026   16.3204 H   0  0  0  0  0  0  0  0  0  0  0  0
   12.8123   -2.0275   14.7942 H   0  0  0  0  0  0  0  0  0  0  0  0
   14.0436    0.5882   15.9376 H   0  0  0  0  0  0  0  0  0  0  0  0
   16.1279    0.1185   15.3255 H   0  0  0  0  0  0  0  0  0  0  0  0
   15.6554   -0.4667   13.7443 H   0  0  0  0  0  0  0  0  0  0  0  0
   15.0799   -2.6926   14.6897 H   0  0  0  0  0  0  0  0  0  0  0  0
   16.7660   -2.2338   14.9798 H   0  0  0  0  0  0  0  0  0  0  0  0
   14.7018   -2.6409   16.9687 H   0  0  0  0  0  0  0  0  0  0  0  0
   16.4640   -2.1530   19.9144 H   0  0  0  0  0  0  0  0  0  0  0  0
   14.8590   -1.9325   19.2116 H   0  0  0  0  0  0  0  0  0  0  0  0
   14.9687   -4.2721   18.2506 H   0  0  0  0  0  0  0  0  0  0  0  0
   15.4474   -3.8494   21.2180 H   0  0  0  0  0  0  0  0  0  0  0  0
   14.0339   -4.5477   20.4152 H   0  0  0  0  0  0  0  0  0  0  0  0
   15.2607   -6.5643   19.8879 H   0  0  0  0  0  0  0  0  0  0  0  0
   15.8793   -6.2038   21.5105 H   0  0  0  0  0  0  0  0  0  0  0  0
   17.8378   -5.0943   20.5698 H   0  0  0  0  0  0  0  0  0  0  0  0
   17.6121   -6.4532   19.4436 H   0  0  0  0  0  0  0  0  0  0  0  0
   13.4358    1.4755   13.6411 H   0  0  0  0  0  0  0  0  0  0  0  0
   13.5178   -0.1385   12.9239 H   0  0  0  0  0  0  0  0  0  0  0  0
  1  2  1  0
  2  3  1  0
  3  4  1  0
  4  5  1  0
  3  6  1  0
  6  7  2  0
  6  8  1  0
  8  9  1  0
  9 10  1  0
 10 11  1  0
 11 12  1  0
 12 13  1  0
 13 14  1  0
 14 15  1  0
 15 16  2  0
 15 17  1  0
 17 18  1  0
 18 19  1  0
 19 20  1  0
 20 21  1  0
 21 22  1  0
 11 23  1  0
 23  9  1  0
 22 18  1  0
  1 24  1  0
  1 25  1  0
  1 26  1  0
  2 27  1  0
  2 28  1  0
  3 29  1  0
  4 30  1  0
  4 31  1  0
  5 32  1  0
  5 33  1  0
  5 34  1  0
  8 35  1  0
  9 36  1  0
 10 37  1  0
 10 38  1  0
 11 39  1  0
 12 40  1  0
 12 41  1  0
 13 42  1  0
 13 43  1  0
 14 44  1  0
 17 45  1  0
 17 46  1  0
 18 47  1  0
 19 48  1  0
 19 49  1  0
 20 50  1  0
 20 51  1  0
 21 52  1  0
 21 53  1  0
 23 54  1  0
 23 55  1  0
M  END
>  <Energy>  (1409) 
30.533674412340531

>  <compound_id>  (1409) 
87627

>  <target_id>  (1409) 
1

>  <reference_id>  (1409) 
97

>  <inspiration_ids>  (1409) 
[97, 27]

>  <energy_score>  (1409) 
-4.450318802790406

>  <distance_score>  (1409) 
2.7221811612839506

>  <path>  (1409) 
/opt/xchem-fragalysis-2/maxwin/BulkDock/SCRATCH/511017/C87627-P97/C87627-P97.minimised.mol

>  <scratch_subdir>  (1409) 
/opt/xchem-fragalysis-2/maxwin/BulkDock/SCRATCH/511017/C87627-P97

>  <fragmenstein_runtime>  (1409) 
27.63983964920044

>  <fragmenstein_outcome>  (1409) 
too moved

>  <fragmenstein_mode>  (1409) 
expansion

>  <fragmenstein_error>  (1409) 


$$$$
C87627-P27
     RDKit          3D

 55 56  0  0  0  0  0  0  0  0999 V2000
   12.1674    4.3246   11.4160 C   0  0  0  0  0  0  0  0  0  0  0  0
   12.9653    3.2399   10.7028 C   0  0  0  0  0  0  0  0  0  0  0  0
   14.2072    2.8024   11.4978 C   0  0  0  0  0  0  0  0  0  0  0  0
   15.0968    1.8634   10.6614 C   0  0  0  0  0  0  0  0  0  0  0  0
   16.3923    1.4889   11.3694 C   0  0  0  0  0  0  0  0  0  0  0  0
   13.8281    2.2093   12.8730 C   0  0  0  0  0  0  0  0  0  0  0  0
   14.1742    2.8019   13.8556 O   0  0  0  0  0  0  0  0  0  0  0  0
   13.0827    0.9832   12.7268 N   0  0  0  0  0  0  0  0  0  0  0  0
   12.5965    0.0241   13.7306 C   0  0  0  0  0  0  0  0  0  0  0  0
   13.4804   -1.2511   13.8208 C   0  0  0  0  0  0  0  0  0  0  0  0
   14.2915   -0.5145   14.9258 C   0  0  0  0  0  0  0  0  0  0  0  0
   14.8519   -1.3204   16.0826 C   0  0  0  0  0  0  0  0  0  0  0  0
   16.0845   -2.1162   15.6290 C   0  0  0  0  0  0  0  0  0  0  0  0
   16.6950   -2.8890   16.8024 N   0  0  0  0  0  0  0  0  0  0  0  0
   16.7330   -3.8607   17.2697 C   0  0  0  0  0  0  0  0  0  0  0  0
   15.8994   -4.7774   16.2366 O   0  0  0  0  0  0  0  0  0  0  0  0
   17.2442   -4.6059   18.4354 C   0  0  0  0  0  0  0  0  0  0  0  0
   16.5497   -4.1287   19.6965 C   0  0  0  0  0  0  0  0  0  0  0  0
   15.0634   -4.4537   19.7529 C   0  0  0  0  0  0  0  0  0  0  0  0
   14.8260   -4.5468   21.2375 C   0  0  0  0  0  0  0  0  0  0  0  0
   16.0989   -5.2122   21.7117 C   0  0  0  0  0  0  0  0  0  0  0  0
   17.1475   -4.7786   20.8342 O   0  0  0  0  0  0  0  0  0  0  0  0
   12.9861    0.2766   15.2085 C   0  0  0  0  0  0  0  0  0  0  0  0
   11.3520    4.6754   10.7767 H   0  0  0  0  0  0  0  0  0  0  0  0
   12.8000    5.1852   11.6552 H   0  0  0  0  0  0  0  0  0  0  0  0
   11.7256    3.9505   12.3446 H   0  0  0  0  0  0  0  0  0  0  0  0
   12.3083    2.3878   10.5024 H   0  0  0  0  0  0  0  0  0  0  0  0
   13.2797    3.6316    9.7276 H   0  0  0  0  0  0  0  0  0  0  0  0
   14.8003    3.7052   11.7048 H   0  0  0  0  0  0  0  0  0  0  0  0
   15.3552    2.3644    9.7200 H   0  0  0  0  0  0  0  0  0  0  0  0
   14.5654    0.9469   10.3848 H   0  0  0  0  0  0  0  0  0  0  0  0
   16.2007    0.8984   12.2701 H   0  0  0  0  0  0  0  0  0  0  0  0
   17.0224    0.8881   10.7057 H   0  0  0  0  0  0  0  0  0  0  0  0
   16.9568    2.3823   11.6543 H   0  0  0  0  0  0  0  0  0  0  0  0
   13.0451    0.7349   11.7464 H   0  0  0  0  0  0  0  0  0  0  0  0
   11.5310   -0.1732   13.5776 H   0  0  0  0  0  0  0  0  0  0  0  0
   12.9331   -2.1349   14.1697 H   0  0  0  0  0  0  0  0  0  0  0  0
   14.0433   -1.5205   12.9225 H   0  0  0  0  0  0  0  0  0  0  0  0
   15.0745    0.1343   14.5067 H   0  0  0  0  0  0  0  0  0  0  0  0
   15.1341   -0.6427   16.8977 H   0  0  0  0  0  0  0  0  0  0  0  0
   14.0968   -2.0041   16.4893 H   0  0  0  0  0  0  0  0  0  0  0  0
   15.7693   -2.8559   14.8834 H   0  0  0  0  0  0  0  0  0  0  0  0
   16.8305   -1.4842   15.1062 H   0  0  0  0  0  0  0  0  0  0  0  0
   16.9397   -1.9326   16.7009 H   0  0  0  0  0  0  0  0  0  0  0  0
   17.1065   -5.6824   18.2861 H   0  0  0  0  0  0  0  0  0  0  0  0
   18.3254   -4.4424   18.5110 H   0  0  0  0  0  0  0  0  0  0  0  0
   16.6984   -3.0498   19.8330 H   0  0  0  0  0  0  0  0  0  0  0  0
   14.4413   -3.7004   19.2611 H   0  0  0  0  0  0  0  0  0  0  0  0
   14.8568   -5.4245   19.2903 H   0  0  0  0  0  0  0  0  0  0  0  0
   13.9255   -5.1058   21.5050 H   0  0  0  0  0  0  0  0  0  0  0  0
   14.7461   -3.5402   21.6649 H   0  0  0  0  0  0  0  0  0  0  0  0
   16.3502   -4.9519   22.7436 H   0  0  0  0  0  0  0  0  0  0  0  0
   16.0285   -6.3025   21.6337 H   0  0  0  0  0  0  0  0  0  0  0  0
   12.3091   -0.2153   15.9197 H   0  0  0  0  0  0  0  0  0  0  0  0
   13.1073    1.3115   15.5340 H   0  0  0  0  0  0  0  0  0  0  0  0
  1  2  1  0
  2  3  1  0
  3  4  1  0
  4  5  1  0
  3  6  1  0
  6  7  2  0
  6  8  1  0
  8  9  1  0
  9 10  1  0
 10 11  1  0
 11 12  1  0
 12 13  1  0
 13 14  1  0
 14 15  1  0
 15 16  2  0
 15 17  1  0
 17 18  1  0
 18 19  1  0
 19 20  1  0
 20 21  1  0
 21 22  1  0
 11 23  1  0
 23  9  1  0
 22 18  1  0
  1 24  1  0
  1 25  1  0
  1 26  1  0
  2 27  1  0
  2 28  1  0
  3 29  1  0
  4 30  1  0
  4 31  1  0
  5 32  1  0
  5 33  1  0
  5 34  1  0
  8 35  1  0
  9 36  1  0
 10 37  1  0
 10 38  1  0
 11 39  1  0
 12 40  1  0
 12 41  1  0
 13 42  1  0
 13 43  1  0
 14 44  1  0
 17 45  1  0
 17 46  1  0
 18 47  1  0
 19 48  1  0
 19 49  1  0
 20 50  1  0
 20 51  1  0
 21 52  1  0
 21 53  1  0
 23 54  1  0
 23 55  1  0
M  END
>  <Energy>  (1410) 
198.53540415586849

>  <compound_id>  (1410) 
87627

>  <target_id>  (1410) 
1

>  <reference_id>  (1410) 
27

>  <inspiration_ids>  (1410) 
[97, 27]

>  <energy_score>  (1410) 
152.89700138178446

>  <distance_score>  (1410) 
2.804043025075901

>  <path>  (1410) 
/opt/xchem-fragalysis-2/maxwin/BulkDock/SCRATCH/511017/C87627-P27/C87627-P27.minimised.mol

>  <scratch_subdir>  (1410) 
/opt/xchem-fragalysis-2/maxwin/BulkDock/SCRATCH/511017/C87627-P27

>  <fragmenstein_runtime>  (1410) 
28.42335796356201

>  <fragmenstein_outcome>  (1410) 
too moved

>  <fragmenstein_mode>  (1410) 
expansion

>  <fragmenstein_error>  (1410) 


$$$$
C87631-P97
     RDKit          3D

 46 46  0  0  0  0  0  0  0  0999 V2000
   17.5022   -0.6763   15.1401 C   0  0  0  0  0  0  0  0  0  0  0  0
   17.9613   -0.1880   16.5045 C   0  0  0  0  0  0  0  0  0  0  0  0
   18.0331   -1.2237   17.5100 N   0  0  0  0  0  0  0  0  0  0  0  0
   18.8541   -2.5449   17.5421 C   0  0  0  0  0  0  0  0  0  0  0  0
   19.5363   -3.0325   16.7272 O   0  0  0  0  0  0  0  0  0  0  0  0
   18.7072   -3.1628   18.9599 C   0  0  0  0  0  0  0  0  0  0  0  0
   17.7049   -4.2356   19.1094 N   0  0  0  0  0  0  0  0  0  0  0  0
   17.8155   -5.3099   18.1181 C   0  0  0  0  0  0  0  0  0  0  0  0
   16.8270   -4.9607   17.0226 C   0  0  0  0  0  0  0  0  0  0  0  0
   15.7065   -4.2710   17.7694 C   0  0  0  0  0  0  0  0  0  0  0  0
   15.1004   -3.2084   17.0184 N   0  0  0  0  0  0  0  0  0  0  0  0
   13.6206   -2.8458   16.8185 C   0  0  0  0  0  0  0  0  0  0  0  0
   12.6631   -3.3030   17.2912 O   0  0  0  0  0  0  0  0  0  0  0  0
   13.5634   -1.6076   15.8972 C   0  0  0  0  0  0  0  0  0  0  0  0
   14.0546   -0.3968   16.7241 C   0  0  0  0  0  0  0  0  0  0  0  0
   13.8175    0.9684   16.1003 C   0  0  0  0  0  0  0  0  0  0  0  0
   12.1318   -1.3935   15.3740 C   0  0  0  0  0  0  0  0  0  0  0  0
   11.5532   -2.5906   14.6369 C   0  0  0  0  0  0  0  0  0  0  0  0
   16.3106   -3.7816   19.0889 C   0  0  0  0  0  0  0  0  0  0  0  0
   17.4677    0.1575   14.4321 H   0  0  0  0  0  0  0  0  0  0  0  0
   18.1902   -1.4301   14.7438 H   0  0  0  0  0  0  0  0  0  0  0  0
   16.5111   -1.1271   15.1810 H   0  0  0  0  0  0  0  0  0  0  0  0
   18.9650    0.2402   16.4173 H   0  0  0  0  0  0  0  0  0  0  0  0
   17.2888    0.5897   16.8784 H   0  0  0  0  0  0  0  0  0  0  0  0
   17.6182   -1.0603   18.4206 H   0  0  0  0  0  0  0  0  0  0  0  0
   18.5343   -2.3783   19.7058 H   0  0  0  0  0  0  0  0  0  0  0  0
   19.6924   -3.5740   19.2175 H   0  0  0  0  0  0  0  0  0  0  0  0
   18.8319   -5.4657   17.7418 H   0  0  0  0  0  0  0  0  0  0  0  0
   17.5109   -6.2500   18.5954 H   0  0  0  0  0  0  0  0  0  0  0  0
   17.2783   -4.3041   16.2717 H   0  0  0  0  0  0  0  0  0  0  0  0
   16.4776   -5.8520   16.4929 H   0  0  0  0  0  0  0  0  0  0  0  0
   14.9136   -4.9893   18.0011 H   0  0  0  0  0  0  0  0  0  0  0  0
   15.6713   -2.6605   16.3859 H   0  0  0  0  0  0  0  0  0  0  0  0
   14.2207   -1.7729   15.0356 H   0  0  0  0  0  0  0  0  0  0  0  0
   15.1242   -0.5037   16.9226 H   0  0  0  0  0  0  0  0  0  0  0  0
   13.5889   -0.4088   17.7120 H   0  0  0  0  0  0  0  0  0  0  0  0
   14.3112    1.7428   16.6965 H   0  0  0  0  0  0  0  0  0  0  0  0
   12.7527    1.2160   16.0619 H   0  0  0  0  0  0  0  0  0  0  0  0
   14.2266    1.0112   15.0861 H   0  0  0  0  0  0  0  0  0  0  0  0
   12.1015   -0.5374   14.6903 H   0  0  0  0  0  0  0  0  0  0  0  0
   11.4690   -1.1462   16.2082 H   0  0  0  0  0  0  0  0  0  0  0  0
   10.4696   -2.4836   14.5821 H   0  0  0  0  0  0  0  0  0  0  0  0
   11.9627   -2.6586   13.6251 H   0  0  0  0  0  0  0  0  0  0  0  0
   11.7320   -3.5424   15.1358 H   0  0  0  0  0  0  0  0  0  0  0  0
   15.7831   -4.2598   19.9235 H   0  0  0  0  0  0  0  0  0  0  0  0
   16.2048   -2.7012   19.2379 H   0  0  0  0  0  0  0  0  0  0  0  0
  1  2  1  0
  2  3  1  0
  3  4  1  0
  4  5  2  0
  4  6  1  0
  6  7  1  0
  7  8  1  0
  8  9  1  0
  9 10  1  0
 10 11  1  0
 11 12  1  0
 12 13  2  0
 12 14  1  0
 14 15  1  0
 15 16  1  0
 14 17  1  0
 17 18  1  0
 10 19  1  0
 19  7  1  0
  1 20  1  0
  1 21  1  0
  1 22  1  0
  2 23  1  0
  2 24  1  0
  3 25  1  0
  6 26  1  0
  6 27  1  0
  8 28  1  0
  8 29  1  0
  9 30  1  0
  9 31  1  0
 10 32  1  0
 11 33  1  0
 14 34  1  0
 15 35  1  0
 15 36  1  0
 16 37  1  0
 16 38  1  0
 16 39  1  0
 17 40  1  0
 17 41  1  0
 18 42  1  0
 18 43  1  0
 18 44  1  0
 19 45  1  0
 19 46  1  0
M  END
>  <Energy>  (1411) 
65.168480110160573

>  <compound_id>  (1411) 
87631

>  <target_id>  (1411) 
1

>  <reference_id>  (1411) 
97

>  <inspiration_ids>  (1411) 
[97, 27]

>  <energy_score>  (1411) 
9.097069372906873

>  <distance_score>  (1411) 
2.186813979901629

>  <path>  (1411) 
/opt/xchem-fragalysis-2/maxwin/BulkDock/SCRATCH/511017/C87631-P97/C87631-P97.minimised.mol

>  <scratch_subdir>  (1411) 
/opt/xchem-fragalysis-2/maxwin/BulkDock/SCRATCH/511017/C87631-P97

>  <fragmenstein_runtime>  (1411) 
3.9746365547180176

>  <fragmenstein_outcome>  (1411) 
too moved

>  <fragmenstein_mode>  (1411) 
expansion

>  <fragmenstein_error>  (1411) 


$$$$
C87631-P27
     RDKit          3D

 46 46  0  0  0  0  0  0  0  0999 V2000
   17.2262   -0.0728   14.8048 C   0  0  0  0  0  0  0  0  0  0  0  0
   17.6932    0.5512   16.1072 C   0  0  0  0  0  0  0  0  0  0  0  0
   17.7720   -0.3586   17.2251 N   0  0  0  0  0  0  0  0  0  0  0  0
   17.6935   -1.9175   17.2706 C   0  0  0  0  0  0  0  0  0  0  0  0
   17.4763   -2.6900   16.4193 O   0  0  0  0  0  0  0  0  0  0  0  0
   18.0758   -2.3098   18.7336 C   0  0  0  0  0  0  0  0  0  0  0  0
   17.6367   -3.6244   19.2472 N   0  0  0  0  0  0  0  0  0  0  0  0
   17.8692   -4.7489   18.3509 C   0  0  0  0  0  0  0  0  0  0  0  0
   16.5141   -5.1644   17.7927 C   0  0  0  0  0  0  0  0  0  0  0  0
   15.4621   -4.2954   18.4757 C   0  0  0  0  0  0  0  0  0  0  0  0
   14.8520   -3.3287   17.5820 N   0  0  0  0  0  0  0  0  0  0  0  0
   14.3680   -1.8829   17.8450 C   0  0  0  0  0  0  0  0  0  0  0  0
   14.3143   -1.2725   18.8383 O   0  0  0  0  0  0  0  0  0  0  0  0
   13.8233   -1.3102   16.5095 C   0  0  0  0  0  0  0  0  0  0  0  0
   13.7868    0.2234   16.6853 C   0  0  0  0  0  0  0  0  0  0  0  0
   13.3014    1.0176   15.4948 C   0  0  0  0  0  0  0  0  0  0  0  0
   12.4433   -1.9182   16.1832 C   0  0  0  0  0  0  0  0  0  0  0  0
   12.1127   -2.0381   14.7034 C   0  0  0  0  0  0  0  0  0  0  0  0
   16.2257   -3.6840   19.6480 C   0  0  0  0  0  0  0  0  0  0  0  0
   17.1698    0.6893   14.0212 H   0  0  0  0  0  0  0  0  0  0  0  0
   17.9222   -0.8481   14.4689 H   0  0  0  0  0  0  0  0  0  0  0  0
   16.2400   -0.5254   14.9061 H   0  0  0  0  0  0  0  0  0  0  0  0
   18.6917    0.9810   15.9784 H   0  0  0  0  0  0  0  0  0  0  0  0
   17.0216    1.3636   16.4007 H   0  0  0  0  0  0  0  0  0  0  0  0
   17.8984    0.0023   18.1642 H   0  0  0  0  0  0  0  0  0  0  0  0
   17.7346   -1.5383   19.4331 H   0  0  0  0  0  0  0  0  0  0  0  0
   19.1727   -2.2889   18.7676 H   0  0  0  0  0  0  0  0  0  0  0  0
   18.6127   -4.5614   17.5689 H   0  0  0  0  0  0  0  0  0  0  0  0
   18.2771   -5.5774   18.9441 H   0  0  0  0  0  0  0  0  0  0  0  0
   16.3669   -6.2105   18.0775 H   0  0  0  0  0  0  0  0  0  0  0  0
   16.4824   -5.0995   16.7007 H   0  0  0  0  0  0  0  0  0  0  0  0
   14.6326   -4.9079   18.8444 H   0  0  0  0  0  0  0  0  0  0  0  0
   14.8397   -3.5141   16.5840 H   0  0  0  0  0  0  0  0  0  0  0  0
   14.5361   -1.5674   15.7202 H   0  0  0  0  0  0  0  0  0  0  0  0
   14.7962    0.5704   16.9364 H   0  0  0  0  0  0  0  0  0  0  0  0
   13.1622    0.4943   17.5440 H   0  0  0  0  0  0  0  0  0  0  0  0
   12.2266    0.8880   15.3404 H   0  0  0  0  0  0  0  0  0  0  0  0
   13.8286    0.7260   14.5814 H   0  0  0  0  0  0  0  0  0  0  0  0
   13.4770    2.0861   15.6582 H   0  0  0  0  0  0  0  0  0  0  0  0
   12.3692   -2.9235   16.6154 H   0  0  0  0  0  0  0  0  0  0  0  0
   11.6587   -1.3228   16.6576 H   0  0  0  0  0  0  0  0  0  0  0  0
   11.2128   -2.6470   14.5700 H   0  0  0  0  0  0  0  0  0  0  0  0
   11.9215   -1.0636   14.2486 H   0  0  0  0  0  0  0  0  0  0  0  0
   12.9278   -2.5086   14.1507 H   0  0  0  0  0  0  0  0  0  0  0  0
   16.1655   -4.3785   20.4968 H   0  0  0  0  0  0  0  0  0  0  0  0
   15.8390   -2.7320   20.0172 H   0  0  0  0  0  0  0  0  0  0  0  0
  1  2  1  0
  2  3  1  0
  3  4  1  0
  4  5  2  0
  4  6  1  0
  6  7  1  0
  7  8  1  0
  8  9  1  0
  9 10  1  0
 10 11  1  0
 11 12  1  0
 12 13  2  0
 12 14  1  0
 14 15  1  0
 15 16  1  0
 14 17  1  0
 17 18  1  0
 10 19  1  0
 19  7  1  0
  1 20  1  0
  1 21  1  0
  1 22  1  0
  2 23  1  0
  2 24  1  0
  3 25  1  0
  6 26  1  0
  6 27  1  0
  8 28  1  0
  8 29  1  0
  9 30  1  0
  9 31  1  0
 10 32  1  0
 11 33  1  0
 14 34  1  0
 15 35  1  0
 15 36  1  0
 16 37  1  0
 16 38  1  0
 16 39  1  0
 17 40  1  0
 17 41  1  0
 18 42  1  0
 18 43  1  0
 18 44  1  0
 19 45  1  0
 19 46  1  0
M  END
>  <Energy>  (1412) 
69.99908244629313

>  <compound_id>  (1412) 
87631

>  <target_id>  (1412) 
1

>  <reference_id>  (1412) 
27

>  <inspiration_ids>  (1412) 
[97, 27]

>  <energy_score>  (1412) 
13.9276717090398

>  <distance_score>  (1412) 
2.2749245340029773

>  <path>  (1412) 
/opt/xchem-fragalysis-2/maxwin/BulkDock/SCRATCH/511017/C87631-P27/C87631-P27.minimised.mol

>  <scratch_subdir>  (1412) 
/opt/xchem-fragalysis-2/maxwin/BulkDock/SCRATCH/511017/C87631-P27

>  <fragmenstein_runtime>  (1412) 
3.765852451324463

>  <fragmenstein_outcome>  (1412) 
too moved

>  <fragmenstein_mode>  (1412) 
expansion

>  <fragmenstein_error>  (1412) 


$$$$
C87629-P97
     RDKit          3D

 56 57  0  0  0  0  0  0  0  0999 V2000
   17.9208   -5.5475   20.2456 C   0  0  0  0  0  0  0  0  0  0  0  0
   17.7880   -4.7183   18.9753 C   0  0  0  0  0  0  0  0  0  0  0  0
   16.5538   -5.1057   18.1464 C   0  0  0  0  0  0  0  0  0  0  0  0
   15.3373   -4.1839   18.3596 C   0  0  0  0  0  0  0  0  0  0  0  0
   14.7446   -4.2287   19.7560 C   0  0  0  0  0  0  0  0  0  0  0  0
   16.8484   -5.1695   16.6288 C   0  0  0  0  0  0  0  0  0  0  0  0
   16.5539   -6.1692   16.0391 O   0  0  0  0  0  0  0  0  0  0  0  0
   17.3680   -3.9205   16.1532 N   0  0  0  0  0  0  0  0  0  0  0  0
   17.6089   -3.4420   14.8053 C   0  0  0  0  0  0  0  0  0  0  0  0
   18.8648   -2.5897   14.6821 C   0  0  0  0  0  0  0  0  0  0  0  0
   18.4100   -1.3857   13.8647 C   0  0  0  0  0  0  0  0  0  0  0  0
   17.0061   -1.1370   14.2602 N   0  0  0  0  0  0  0  0  0  0  0  0
   16.9742   -0.4397   15.5696 C   0  0  0  0  0  0  0  0  0  0  0  0
   15.6872    0.3149   15.9857 C   0  0  0  0  0  0  0  0  0  0  0  0
   15.7303    0.8358   17.0784 O   0  0  0  0  0  0  0  0  0  0  0  0
   14.6814    0.3603   14.9789 N   0  0  0  0  0  0  0  0  0  0  0  0
   13.3457    1.1895   14.8958 C   0  0  0  0  0  0  0  0  0  0  0  0
   12.9483    1.6155   13.4820 C   0  0  0  0  0  0  0  0  0  0  0  0
   13.6832   -0.7892   15.1649 C   0  0  0  0  0  0  0  0  0  0  0  0
   13.0858   -1.3884   14.0406 C   0  0  0  0  0  0  0  0  0  0  0  0
   12.2007   -2.4553   14.1888 C   0  0  0  0  0  0  0  0  0  0  0  0
   11.9948   -3.0242   15.4369 C   0  0  0  0  0  0  0  0  0  0  0  0
   12.7044   -2.5502   16.5282 C   0  0  0  0  0  0  0  0  0  0  0  0
   13.5234   -1.4275   16.4090 C   0  0  0  0  0  0  0  0  0  0  0  0
   16.4676   -2.5162   14.3382 C   0  0  0  0  0  0  0  0  0  0  0  0
   18.0252   -6.6112   20.0080 H   0  0  0  0  0  0  0  0  0  0  0  0
   17.0565   -5.4277   20.9034 H   0  0  0  0  0  0  0  0  0  0  0  0
   18.8116   -5.2400   20.8029 H   0  0  0  0  0  0  0  0  0  0  0  0
   18.7025   -4.8707   18.3888 H   0  0  0  0  0  0  0  0  0  0  0  0
   17.7601   -3.6545   19.2393 H   0  0  0  0  0  0  0  0  0  0  0  0
   16.2579   -6.1267   18.4257 H   0  0  0  0  0  0  0  0  0  0  0  0
   15.5922   -3.1447   18.1216 H   0  0  0  0  0  0  0  0  0  0  0  0
   14.5561   -4.4807   17.6501 H   0  0  0  0  0  0  0  0  0  0  0  0
   13.8136   -3.6545   19.7900 H   0  0  0  0  0  0  0  0  0  0  0  0
   14.5166   -5.2562   20.0554 H   0  0  0  0  0  0  0  0  0  0  0  0
   15.4266   -3.7921   20.4911 H   0  0  0  0  0  0  0  0  0  0  0  0
   17.4206   -3.2700   16.9258 H   0  0  0  0  0  0  0  0  0  0  0  0
   17.6731   -4.3177   14.1529 H   0  0  0  0  0  0  0  0  0  0  0  0
   19.6722   -3.1315   14.1789 H   0  0  0  0  0  0  0  0  0  0  0  0
   19.2389   -2.2739   15.6633 H   0  0  0  0  0  0  0  0  0  0  0  0
   18.4350   -1.6307   12.7948 H   0  0  0  0  0  0  0  0  0  0  0  0
   19.0627   -0.5167   14.0014 H   0  0  0  0  0  0  0  0  0  0  0  0
   17.2321   -1.1105   16.3967 H   0  0  0  0  0  0  0  0  0  0  0  0
   17.7339    0.3546   15.5507 H   0  0  0  0  0  0  0  0  0  0  0  0
   13.6795    2.1252   15.3753 H   0  0  0  0  0  0  0  0  0  0  0  0
   12.4938    0.9316   15.5526 H   0  0  0  0  0  0  0  0  0  0  0  0
   12.3711    2.5457   13.5272 H   0  0  0  0  0  0  0  0  0  0  0  0
   13.8311    1.7955   12.8605 H   0  0  0  0  0  0  0  0  0  0  0  0
   12.3123    0.8840   12.9795 H   0  0  0  0  0  0  0  0  0  0  0  0
   13.3246   -1.0410   13.0395 H   0  0  0  0  0  0  0  0  0  0  0  0
   11.7099   -2.8833   13.3212 H   0  0  0  0  0  0  0  0  0  0  0  0
   11.3278   -3.8742   15.5464 H   0  0  0  0  0  0  0  0  0  0  0  0
   12.6192   -3.0677   17.4783 H   0  0  0  0  0  0  0  0  0  0  0  0
   14.0302   -1.0681   17.3004 H   0  0  0  0  0  0  0  0  0  0  0  0
   15.5895   -2.6085   14.9761 H   0  0  0  0  0  0  0  0  0  0  0  0
   16.1601   -2.8031   13.3255 H   0  0  0  0  0  0  0  0  0  0  0  0
  1  2  1  0
  2  3  1  0
  3  4  1  0
  4  5  1  0
  3  6  1  0
  6  7  2  0
  6  8  1  0
  8  9  1  0
  9 10  1  0
 10 11  1  0
 11 12  1  0
 12 13  1  0
 13 14  1  0
 14 15  2  0
 14 16  1  0
 16 17  1  0
 17 18  1  0
 16 19  1  0
 19 20  2  0
 20 21  1  0
 21 22  2  0
 22 23  1  0
 23 24  2  0
 12 25  1  0
 25  9  1  0
 24 19  1  0
  1 26  1  0
  1 27  1  0
  1 28  1  0
  2 29  1  0
  2 30  1  0
  3 31  1  0
  4 32  1  0
  4 33  1  0
  5 34  1  0
  5 35  1  0
  5 36  1  0
  8 37  1  0
  9 38  1  0
 10 39  1  0
 10 40  1  0
 11 41  1  0
 11 42  1  0
 13 43  1  0
 13 44  1  0
 17 45  1  0
 17 46  1  0
 18 47  1  0
 18 48  1  0
 18 49  1  0
 20 50  1  0
 21 51  1  0
 22 52  1  0
 23 53  1  0
 24 54  1  0
 25 55  1  0
 25 56  1  0
M  END
>  <Energy>  (1413) 
152.53329183673526

>  <compound_id>  (1413) 
87629

>  <target_id>  (1413) 
1

>  <reference_id>  (1413) 
97

>  <inspiration_ids>  (1413) 
[97, 27]

>  <energy_score>  (1413) 
27.451459425020005

>  <distance_score>  (1413) 
1.9307589266401164

>  <path>  (1413) 
/opt/xchem-fragalysis-2/maxwin/BulkDock/SCRATCH/511017/C87629-P97/C87629-P97.minimised.mol

>  <scratch_subdir>  (1413) 
/opt/xchem-fragalysis-2/maxwin/BulkDock/SCRATCH/511017/C87629-P97

>  <fragmenstein_runtime>  (1413) 
44.63022828102112

>  <fragmenstein_outcome>  (1413) 
too moved

>  <fragmenstein_mode>  (1413) 
expansion

>  <fragmenstein_error>  (1413) 


$$$$
C87629-P27
     RDKit          3D

 56 57  0  0  0  0  0  0  0  0999 V2000
   17.9218   -5.3604   19.9417 C   0  0  0  0  0  0  0  0  0  0  0  0
   16.4094   -5.4808   20.0462 C   0  0  0  0  0  0  0  0  0  0  0  0
   15.5764   -4.3129   19.4875 C   0  0  0  0  0  0  0  0  0  0  0  0
   15.9731   -2.9349   20.0341 C   0  0  0  0  0  0  0  0  0  0  0  0
   14.9257   -1.8768   19.7151 C   0  0  0  0  0  0  0  0  0  0  0  0
   15.4573   -4.3586   17.9492 C   0  0  0  0  0  0  0  0  0  0  0  0
   14.4101   -4.7123   17.4892 O   0  0  0  0  0  0  0  0  0  0  0  0
   16.6803   -3.9897   17.3095 N   0  0  0  0  0  0  0  0  0  0  0  0
   17.0127   -3.8347   15.9004 C   0  0  0  0  0  0  0  0  0  0  0  0
   18.4693   -3.4529   15.7156 C   0  0  0  0  0  0  0  0  0  0  0  0
   18.4408   -1.9493   15.9435 C   0  0  0  0  0  0  0  0  0  0  0  0
   17.2000   -1.4887   15.3040 N   0  0  0  0  0  0  0  0  0  0  0  0
   16.6173   -0.3300   16.0149 C   0  0  0  0  0  0  0  0  0  0  0  0
   15.8242    0.6676   15.1299 C   0  0  0  0  0  0  0  0  0  0  0  0
   15.8227    1.8274   15.4738 O   0  0  0  0  0  0  0  0  0  0  0  0
   15.2305    0.0363   13.9961 N   0  0  0  0  0  0  0  0  0  0  0  0
   14.4767    0.6465   12.7567 C   0  0  0  0  0  0  0  0  0  0  0  0
   14.8401   -0.0748   11.4632 C   0  0  0  0  0  0  0  0  0  0  0  0
   13.8182   -0.4405   14.3285 C   0  0  0  0  0  0  0  0  0  0  0  0
   13.3804   -1.6740   13.8107 C   0  0  0  0  0  0  0  0  0  0  0  0
   12.1394   -2.1995   14.1641 C   0  0  0  0  0  0  0  0  0  0  0  0
   11.3225   -1.5098   15.0496 C   0  0  0  0  0  0  0  0  0  0  0  0
   11.7577   -0.3108   15.6041 C   0  0  0  0  0  0  0  0  0  0  0  0
   13.0138    0.2059   15.2829 C   0  0  0  0  0  0  0  0  0  0  0  0
   16.2803   -2.6476   15.2628 C   0  0  0  0  0  0  0  0  0  0  0  0
   18.2637   -5.4152   18.9052 H   0  0  0  0  0  0  0  0  0  0  0  0
   18.3942   -6.1911   20.4773 H   0  0  0  0  0  0  0  0  0  0  0  0
   18.2891   -4.4321   20.3875 H   0  0  0  0  0  0  0  0  0  0  0  0
   16.1593   -5.5961   21.1089 H   0  0  0  0  0  0  0  0  0  0  0  0
   16.1013   -6.4131   19.5563 H   0  0  0  0  0  0  0  0  0  0  0  0
   14.5523   -4.5004   19.8483 H   0  0  0  0  0  0  0  0  0  0  0  0
   16.0765   -2.9959   21.1246 H   0  0  0  0  0  0  0  0  0  0  0  0
   16.9402   -2.5971   19.6495 H   0  0  0  0  0  0  0  0  0  0  0  0
   14.7725   -1.7651   18.6382 H   0  0  0  0  0  0  0  0  0  0  0  0
   15.2349   -0.9061   20.1154 H   0  0  0  0  0  0  0  0  0  0  0  0
   13.9709   -2.1413   20.1769 H   0  0  0  0  0  0  0  0  0  0  0  0
   17.3323   -3.6655   18.0091 H   0  0  0  0  0  0  0  0  0  0  0  0
   16.7578   -4.7758   15.4040 H   0  0  0  0  0  0  0  0  0  0  0  0
   18.7905   -3.6714   14.6896 H   0  0  0  0  0  0  0  0  0  0  0  0
   19.1455   -3.9638   16.4082 H   0  0  0  0  0  0  0  0  0  0  0  0
   19.3160   -1.4586   15.5065 H   0  0  0  0  0  0  0  0  0  0  0  0
   18.4406   -1.7497   17.0233 H   0  0  0  0  0  0  0  0  0  0  0  0
   15.9924   -0.6291   16.8636 H   0  0  0  0  0  0  0  0  0  0  0  0
   17.4418    0.2714   16.4236 H   0  0  0  0  0  0  0  0  0  0  0  0
   14.9619    1.6336   12.6839 H   0  0  0  0  0  0  0  0  0  0  0  0
   13.4111    0.9382   12.8036 H   0  0  0  0  0  0  0  0  0  0  0  0
   15.9190   -0.2551   11.4081 H   0  0  0  0  0  0  0  0  0  0  0  0
   14.3358   -1.0360   11.3537 H   0  0  0  0  0  0  0  0  0  0  0  0
   14.5609    0.5446   10.6050 H   0  0  0  0  0  0  0  0  0  0  0  0
   14.0168   -2.2430   13.1383 H   0  0  0  0  0  0  0  0  0  0  0  0
   11.7986   -3.1376   13.7329 H   0  0  0  0  0  0  0  0  0  0  0  0
   10.3351   -1.9006   15.2734 H   0  0  0  0  0  0  0  0  0  0  0  0
   11.1035    0.2438   16.2639 H   0  0  0  0  0  0  0  0  0  0  0  0
   13.3246    1.1445   15.7354 H   0  0  0  0  0  0  0  0  0  0  0  0
   15.3163   -2.4694   15.7487 H   0  0  0  0  0  0  0  0  0  0  0  0
   16.0985   -2.8718   14.2067 H   0  0  0  0  0  0  0  0  0  0  0  0
  1  2  1  0
  2  3  1  0
  3  4  1  0
  4  5  1  0
  3  6  1  0
  6  7  2  0
  6  8  1  0
  8  9  1  0
  9 10  1  0
 10 11  1  0
 11 12  1  0
 12 13  1  0
 13 14  1  0
 14 15  2  0
 14 16  1  0
 16 17  1  0
 17 18  1  0
 16 19  1  0
 19 20  2  0
 20 21  1  0
 21 22  2  0
 22 23  1  0
 23 24  2  0
 12 25  1  0
 25  9  1  0
 24 19  1  0
  1 26  1  0
  1 27  1  0
  1 28  1  0
  2 29  1  0
  2 30  1  0
  3 31  1  0
  4 32  1  0
  4 33  1  0
  5 34  1  0
  5 35  1  0
  5 36  1  0
  8 37  1  0
  9 38  1  0
 10 39  1  0
 10 40  1  0
 11 41  1  0
 11 42  1  0
 13 43  1  0
 13 44  1  0
 17 45  1  0
 17 46  1  0
 18 47  1  0
 18 48  1  0
 18 49  1  0
 20 50  1  0
 21 51  1  0
 22 52  1  0
 23 53  1  0
 24 54  1  0
 25 55  1  0
 25 56  1  0
M  END
>  <Energy>  (1414) 
147.11364487521249

>  <compound_id>  (1414) 
87629

>  <target_id>  (1414) 
1

>  <reference_id>  (1414) 
27

>  <inspiration_ids>  (1414) 
[97, 27]

>  <energy_score>  (1414) 
22.03181246349547

>  <distance_score>  (1414) 
2.47788362336234

>  <path>  (1414) 
/opt/xchem-fragalysis-2/maxwin/BulkDock/SCRATCH/511017/C87629-P27/C87629-P27.minimised.mol

>  <scratch_subdir>  (1414) 
/opt/xchem-fragalysis-2/maxwin/BulkDock/SCRATCH/511017/C87629-P27

>  <fragmenstein_runtime>  (1414) 
44.312968254089355

>  <fragmenstein_outcome>  (1414) 
too moved

>  <fragmenstein_mode>  (1414) 
expansion

>  <fragmenstein_error>  (1414) 


$$$$
C87632-P97
     RDKit          3D

 56 57  0  0  0  0  0  0  0  0999 V2000
   14.1283    0.4164   17.2146 C   0  0  0  0  0  0  0  0  0  0  0  0
   13.1393    0.0204   16.1461 C   0  0  0  0  0  0  0  0  0  0  0  0
   12.9530   -1.4700   15.7760 C   0  0  0  0  0  0  0  0  0  0  0  0
   11.5127   -1.6285   15.3005 C   0  0  0  0  0  0  0  0  0  0  0  0
   11.1885   -3.0054   14.7821 C   0  0  0  0  0  0  0  0  0  0  0  0
   13.3944   -2.5355   16.8131 C   0  0  0  0  0  0  0  0  0  0  0  0
   12.6590   -3.1855   17.4296 O   0  0  0  0  0  0  0  0  0  0  0  0
   14.9251   -2.4936   16.8176 N   0  0  0  0  0  0  0  0  0  0  0  0
   15.8668   -3.1708   17.6434 C   0  0  0  0  0  0  0  0  0  0  0  0
   15.8998   -4.6773   17.6935 C   0  0  0  0  0  0  0  0  0  0  0  0
   16.8169   -4.9344   18.9086 C   0  0  0  0  0  0  0  0  0  0  0  0
   16.9582   -3.6409   19.6381 N   0  0  0  0  0  0  0  0  0  0  0  0
   18.2951   -3.0014   19.3888 C   0  0  0  0  0  0  0  0  0  0  0  0
   18.2549   -1.4312   19.4285 C   0  0  0  0  0  0  0  0  0  0  0  0
   18.1726   -0.8260   20.4270 O   0  0  0  0  0  0  0  0  0  0  0  0
   18.2399   -0.9410   17.9428 N   0  0  0  0  0  0  0  0  0  0  0  0
   18.0249    0.3791   17.3924 C   0  0  0  0  0  0  0  0  0  0  0  0
   18.0449    0.4975   15.8494 C   0  0  0  0  0  0  0  0  0  0  0  0
   17.1762   -0.4164   15.0218 C   0  0  0  0  0  0  0  0  0  0  0  0
   17.4902   -1.7788   14.8948 C   0  0  0  0  0  0  0  0  0  0  0  0
   16.6613   -2.6415   14.1817 C   0  0  0  0  0  0  0  0  0  0  0  0
   15.5899   -2.1205   13.4698 C   0  0  0  0  0  0  0  0  0  0  0  0
   15.3276   -0.7534   13.5053 C   0  0  0  0  0  0  0  0  0  0  0  0
   16.1068    0.0965   14.2863 C   0  0  0  0  0  0  0  0  0  0  0  0
   15.8231   -2.8421   19.1248 C   0  0  0  0  0  0  0  0  0  0  0  0
   14.0107    1.4759   17.4651 H   0  0  0  0  0  0  0  0  0  0  0  0
   15.1500    0.2824   16.8729 H   0  0  0  0  0  0  0  0  0  0  0  0
   14.0031   -0.1621   18.1313 H   0  0  0  0  0  0  0  0  0  0  0  0
   13.3895    0.5689   15.2291 H   0  0  0  0  0  0  0  0  0  0  0  0
   12.1724    0.4471   16.4237 H   0  0  0  0  0  0  0  0  0  0  0  0
   13.5431   -1.6870   14.8922 H   0  0  0  0  0  0  0  0  0  0  0  0
   11.3105   -0.9045   14.5003 H   0  0  0  0  0  0  0  0  0  0  0  0
   10.8168   -1.3848   16.1019 H   0  0  0  0  0  0  0  0  0  0  0  0
   11.4517   -3.8013   15.4780 H   0  0  0  0  0  0  0  0  0  0  0  0
   11.6789   -3.1965   13.8239 H   0  0  0  0  0  0  0  0  0  0  0  0
   10.1109   -3.0610   14.6523 H   0  0  0  0  0  0  0  0  0  0  0  0
   15.2443   -1.7481   16.2120 H   0  0  0  0  0  0  0  0  0  0  0  0
   16.8192   -2.8732   17.2146 H   0  0  0  0  0  0  0  0  0  0  0  0
   16.2885   -5.1227   16.7730 H   0  0  0  0  0  0  0  0  0  0  0  0
   14.8969   -5.0700   17.8804 H   0  0  0  0  0  0  0  0  0  0  0  0
   16.3474   -5.6719   19.5698 H   0  0  0  0  0  0  0  0  0  0  0  0
   17.7828   -5.3509   18.6012 H   0  0  0  0  0  0  0  0  0  0  0  0
   18.7339   -3.3307   18.4400 H   0  0  0  0  0  0  0  0  0  0  0  0
   18.9865   -3.3290   20.1738 H   0  0  0  0  0  0  0  0  0  0  0  0
   18.4142   -1.7197   17.3293 H   0  0  0  0  0  0  0  0  0  0  0  0
   17.0715    0.7322   17.7942 H   0  0  0  0  0  0  0  0  0  0  0  0
   18.7953    1.0305   17.8199 H   0  0  0  0  0  0  0  0  0  0  0  0
   19.0797    0.3409   15.5139 H   0  0  0  0  0  0  0  0  0  0  0  0
   17.8199    1.5417   15.5956 H   0  0  0  0  0  0  0  0  0  0  0  0
   18.3858   -2.1920   15.3489 H   0  0  0  0  0  0  0  0  0  0  0  0
   16.8957   -3.7001   14.1213 H   0  0  0  0  0  0  0  0  0  0  0  0
   14.9907   -2.7608   12.8288 H   0  0  0  0  0  0  0  0  0  0  0  0
   14.5086   -0.3482   12.9143 H   0  0  0  0  0  0  0  0  0  0  0  0
   15.8750    1.1592   14.3066 H   0  0  0  0  0  0  0  0  0  0  0  0
   15.8697   -1.7717   19.3398 H   0  0  0  0  0  0  0  0  0  0  0  0
   14.8876   -3.1925   19.5826 H   0  0  0  0  0  0  0  0  0  0  0  0
  1  2  1  0
  2  3  1  0
  3  4  1  0
  4  5  1  0
  3  6  1  0
  6  7  2  0
  6  8  1  0
  8  9  1  0
  9 10  1  0
 10 11  1  0
 11 12  1  0
 12 13  1  0
 13 14  1  0
 14 15  2  0
 14 16  1  0
 16 17  1  0
 17 18  1  0
 18 19  1  0
 19 20  2  0
 20 21  1  0
 21 22  2  0
 22 23  1  0
 23 24  2  0
 12 25  1  0
 25  9  1  0
 24 19  1  0
  1 26  1  0
  1 27  1  0
  1 28  1  0
  2 29  1  0
  2 30  1  0
  3 31  1  0
  4 32  1  0
  4 33  1  0
  5 34  1  0
  5 35  1  0
  5 36  1  0
  8 37  1  0
  9 38  1  0
 10 39  1  0
 10 40  1  0
 11 41  1  0
 11 42  1  0
 13 43  1  0
 13 44  1  0
 16 45  1  0
 17 46  1  0
 17 47  1  0
 18 48  1  0
 18 49  1  0
 20 50  1  0
 21 51  1  0
 22 52  1  0
 23 53  1  0
 24 54  1  0
 25 55  1  0
 25 56  1  0
M  END
>  <Energy>  (1415) 
121.17317257785197

>  <compound_id>  (1415) 
87632

>  <target_id>  (1415) 
1

>  <reference_id>  (1415) 
97

>  <inspiration_ids>  (1415) 
[97, 27]

>  <energy_score>  (1415) 
26.088561524100243

>  <distance_score>  (1415) 
2.8252133053216344

>  <path>  (1415) 
/opt/xchem-fragalysis-2/maxwin/BulkDock/SCRATCH/511017/C87632-P97/C87632-P97.minimised.mol

>  <scratch_subdir>  (1415) 
/opt/xchem-fragalysis-2/maxwin/BulkDock/SCRATCH/511017/C87632-P97

>  <fragmenstein_runtime>  (1415) 
4.508900165557861

>  <fragmenstein_outcome>  (1415) 
too moved

>  <fragmenstein_mode>  (1415) 
expansion

>  <fragmenstein_error>  (1415) 


$$$$
C87632-P27
     RDKit          3D

 56 57  0  0  0  0  0  0  0  0999 V2000
   14.7646    2.7638   15.9164 C   0  0  0  0  0  0  0  0  0  0  0  0
   14.4286    1.2881   15.9174 C   0  0  0  0  0  0  0  0  0  0  0  0
   13.2611    1.0167   16.8704 C   0  0  0  0  0  0  0  0  0  0  0  0
   11.9339    1.2868   16.0818 C   0  0  0  0  0  0  0  0  0  0  0  0
   11.2998    0.2342   15.1837 C   0  0  0  0  0  0  0  0  0  0  0  0
   13.4338   -0.3835   17.4720 C   0  0  0  0  0  0  0  0  0  0  0  0
   12.6318   -1.2017   17.2633 O   0  0  0  0  0  0  0  0  0  0  0  0
   14.7929   -0.4743   18.2198 N   0  0  0  0  0  0  0  0  0  0  0  0
   15.4782   -1.6100   18.7753 C   0  0  0  0  0  0  0  0  0  0  0  0
   14.7660   -2.7862   19.4051 C   0  0  0  0  0  0  0  0  0  0  0  0
   15.9561   -3.7298   19.6651 C   0  0  0  0  0  0  0  0  0  0  0  0
   17.1265   -2.8551   19.8891 N   0  0  0  0  0  0  0  0  0  0  0  0
   18.3253   -3.1672   19.0634 C   0  0  0  0  0  0  0  0  0  0  0  0
   18.4667   -2.3653   17.7290 C   0  0  0  0  0  0  0  0  0  0  0  0
   18.9452   -1.2995   17.7018 O   0  0  0  0  0  0  0  0  0  0  0  0
   17.8059   -3.1997   16.5993 N   0  0  0  0  0  0  0  0  0  0  0  0
   17.5113   -2.8527   15.2181 C   0  0  0  0  0  0  0  0  0  0  0  0
   16.3583   -1.8317   15.0472 C   0  0  0  0  0  0  0  0  0  0  0  0
   14.9604   -2.3991   15.1859 C   0  0  0  0  0  0  0  0  0  0  0  0
   14.6312   -3.3787   16.1446 C   0  0  0  0  0  0  0  0  0  0  0  0
   13.3200   -3.8246   16.3460 C   0  0  0  0  0  0  0  0  0  0  0  0
   12.3144   -3.3445   15.5234 C   0  0  0  0  0  0  0  0  0  0  0  0
   12.6371   -2.4542   14.4981 C   0  0  0  0  0  0  0  0  0  0  0  0
   13.9364   -1.9500   14.3491 C   0  0  0  0  0  0  0  0  0  0  0  0
   16.6313   -1.4589   19.7553 C   0  0  0  0  0  0  0  0  0  0  0  0
   13.9236    3.3846   15.5951 H   0  0  0  0  0  0  0  0  0  0  0  0
   15.5952    2.9573   15.2292 H   0  0  0  0  0  0  0  0  0  0  0  0
   15.0760    3.0983   16.9116 H   0  0  0  0  0  0  0  0  0  0  0  0
   14.1839    0.9754   14.8961 H   0  0  0  0  0  0  0  0  0  0  0  0
   15.3430    0.7542   16.1749 H   0  0  0  0  0  0  0  0  0  0  0  0
   13.2947    1.7169   17.7159 H   0  0  0  0  0  0  0  0  0  0  0  0
   12.0913    2.1680   15.4451 H   0  0  0  0  0  0  0  0  0  0  0  0
   11.1659    1.6485   16.7675 H   0  0  0  0  0  0  0  0  0  0  0  0
   10.3878    0.6518   14.7391 H   0  0  0  0  0  0  0  0  0  0  0  0
   11.9630    0.0136   14.3497 H   0  0  0  0  0  0  0  0  0  0  0  0
   10.9851   -0.6572   15.7238 H   0  0  0  0  0  0  0  0  0  0  0  0
   15.2801    0.4105   18.1459 H   0  0  0  0  0  0  0  0  0  0  0  0
   15.9295   -1.9804   17.8597 H   0  0  0  0  0  0  0  0  0  0  0  0
   13.9918   -3.2442   18.7973 H   0  0  0  0  0  0  0  0  0  0  0  0
   14.2917   -2.4871   20.3487 H   0  0  0  0  0  0  0  0  0  0  0  0
   15.7681   -4.3481   20.5488 H   0  0  0  0  0  0  0  0  0  0  0  0
   16.1016   -4.4046   18.8162 H   0  0  0  0  0  0  0  0  0  0  0  0
   18.4148   -4.2439   18.8792 H   0  0  0  0  0  0  0  0  0  0  0  0
   19.2089   -2.9050   19.6597 H   0  0  0  0  0  0  0  0  0  0  0  0
   17.4214   -4.0504   16.9883 H   0  0  0  0  0  0  0  0  0  0  0  0
   18.4276   -2.4013   14.8228 H   0  0  0  0  0  0  0  0  0  0  0  0
   17.3145   -3.7802   14.6719 H   0  0  0  0  0  0  0  0  0  0  0  0
   16.4567   -1.4040   14.0413 H   0  0  0  0  0  0  0  0  0  0  0  0
   16.4896   -1.0138   15.7598 H   0  0  0  0  0  0  0  0  0  0  0  0
   15.3887   -3.8202   16.7697 H   0  0  0  0  0  0  0  0  0  0  0  0
   13.0835   -4.5501   17.1154 H   0  0  0  0  0  0  0  0  0  0  0  0
   11.2929   -3.6901   15.6404 H   0  0  0  0  0  0  0  0  0  0  0  0
   11.8541   -2.1463   13.8079 H   0  0  0  0  0  0  0  0  0  0  0  0
   14.1345   -1.2296   13.5604 H   0  0  0  0  0  0  0  0  0  0  0  0
   17.3866   -0.7319   19.4480 H   0  0  0  0  0  0  0  0  0  0  0  0
   16.2629   -1.1115   20.7295 H   0  0  0  0  0  0  0  0  0  0  0  0
  1  2  1  0
  2  3  1  0
  3  4  1  0
  4  5  1  0
  3  6  1  0
  6  7  2  0
  6  8  1  0
  8  9  1  0
  9 10  1  0
 10 11  1  0
 11 12  1  0
 12 13  1  0
 13 14  1  0
 14 15  2  0
 14 16  1  0
 16 17  1  0
 17 18  1  0
 18 19  1  0
 19 20  2  0
 20 21  1  0
 21 22  2  0
 22 23  1  0
 23 24  2  0
 12 25  1  0
 25  9  1  0
 24 19  1  0
  1 26  1  0
  1 27  1  0
  1 28  1  0
  2 29  1  0
  2 30  1  0
  3 31  1  0
  4 32  1  0
  4 33  1  0
  5 34  1  0
  5 35  1  0
  5 36  1  0
  8 37  1  0
  9 38  1  0
 10 39  1  0
 10 40  1  0
 11 41  1  0
 11 42  1  0
 13 43  1  0
 13 44  1  0
 16 45  1  0
 17 46  1  0
 17 47  1  0
 18 48  1  0
 18 49  1  0
 20 50  1  0
 21 51  1  0
 22 52  1  0
 23 53  1  0
 24 54  1  0
 25 55  1  0
 25 56  1  0
M  END
>  <Energy>  (1416) 
137.13990528949901

>  <compound_id>  (1416) 
87632

>  <target_id>  (1416) 
1

>  <reference_id>  (1416) 
27

>  <inspiration_ids>  (1416) 
[97, 27]

>  <energy_score>  (1416) 
42.05529423574632

>  <distance_score>  (1416) 
2.73203179546008

>  <path>  (1416) 
/opt/xchem-fragalysis-2/maxwin/BulkDock/SCRATCH/511017/C87632-P27/C87632-P27.minimised.mol

>  <scratch_subdir>  (1416) 
/opt/xchem-fragalysis-2/maxwin/BulkDock/SCRATCH/511017/C87632-P27

>  <fragmenstein_runtime>  (1416) 
6.841509819030762

>  <fragmenstein_outcome>  (1416) 
too moved

>  <fragmenstein_mode>  (1416) 
expansion

>  <fragmenstein_error>  (1416) 


$$$$
C87634-P97
     RDKit          3D

 53 54  0  0  0  0  0  0  0  0999 V2000
   12.8498    1.3470   16.1923 C   0  0  0  0  0  0  0  0  0  0  0  0
   13.5200    0.0627   16.6612 C   0  0  0  0  0  0  0  0  0  0  0  0
   12.7905   -1.2365   16.2723 C   0  0  0  0  0  0  0  0  0  0  0  0
   12.7497   -1.4215   14.7478 C   0  0  0  0  0  0  0  0  0  0  0  0
   11.7196   -2.4570   14.3285 C   0  0  0  0  0  0  0  0  0  0  0  0
   13.3177   -2.5756   16.8907 C   0  0  0  0  0  0  0  0  0  0  0  0
   12.6348   -3.5169   16.9283 O   0  0  0  0  0  0  0  0  0  0  0  0
   14.7935   -2.4004   17.2780 N   0  0  0  0  0  0  0  0  0  0  0  0
   15.7541   -3.3527   17.6974 C   0  0  0  0  0  0  0  0  0  0  0  0
   15.4560   -4.4828   18.6413 C   0  0  0  0  0  0  0  0  0  0  0  0
   16.8837   -5.0130   18.9218 C   0  0  0  0  0  0  0  0  0  0  0  0
   17.8370   -3.9349   18.5226 N   0  0  0  0  0  0  0  0  0  0  0  0
   18.5573   -4.2671   17.2464 C   0  0  0  0  0  0  0  0  0  0  0  0
   19.0442   -2.9917   16.4631 C   0  0  0  0  0  0  0  0  0  0  0  0
   19.9622   -2.3540   16.8127 O   0  0  0  0  0  0  0  0  0  0  0  0
   18.0315   -2.7539   15.2925 N   0  0  0  0  0  0  0  0  0  0  0  0
   17.8923   -1.6329   14.3805 C   0  0  0  0  0  0  0  0  0  0  0  0
   17.5717   -2.1329   12.9880 C   0  0  0  0  0  0  0  0  0  0  0  0
   16.7587   -0.7524   14.8411 C   0  0  0  0  0  0  0  0  0  0  0  0
   16.3502    0.4845   14.0731 C   0  0  0  0  0  0  0  0  0  0  0  0
   17.0536    0.6168   15.3981 C   0  0  0  0  0  0  0  0  0  0  0  0
   16.9661   -2.7583   18.3780 C   0  0  0  0  0  0  0  0  0  0  0  0
   13.2712    2.2056   16.7252 H   0  0  0  0  0  0  0  0  0  0  0  0
   11.7692    1.3407   16.3501 H   0  0  0  0  0  0  0  0  0  0  0  0
   13.0252    1.5141   15.1248 H   0  0  0  0  0  0  0  0  0  0  0  0
   14.5117    0.0842   16.2221 H   0  0  0  0  0  0  0  0  0  0  0  0
   13.6653    0.0999   17.7438 H   0  0  0  0  0  0  0  0  0  0  0  0
   11.7583   -1.1330   16.6112 H   0  0  0  0  0  0  0  0  0  0  0  0
   12.4904   -0.4826   14.2484 H   0  0  0  0  0  0  0  0  0  0  0  0
   13.7329   -1.7241   14.3705 H   0  0  0  0  0  0  0  0  0  0  0  0
   10.7282   -2.2005   14.7111 H   0  0  0  0  0  0  0  0  0  0  0  0
   11.9631   -3.4580   14.6778 H   0  0  0  0  0  0  0  0  0  0  0  0
   11.6924   -2.5120   13.2403 H   0  0  0  0  0  0  0  0  0  0  0  0
   15.0938   -1.4711   17.0427 H   0  0  0  0  0  0  0  0  0  0  0  0
   16.0117   -3.8246   16.7453 H   0  0  0  0  0  0  0  0  0  0  0  0
   14.8096   -5.2335   18.1956 H   0  0  0  0  0  0  0  0  0  0  0  0
   14.9810   -4.1224   19.5615 H   0  0  0  0  0  0  0  0  0  0  0  0
   16.9947   -5.2213   19.9917 H   0  0  0  0  0  0  0  0  0  0  0  0
   17.0692   -5.9518   18.3874 H   0  0  0  0  0  0  0  0  0  0  0  0
   17.9548   -4.8960   16.5811 H   0  0  0  0  0  0  0  0  0  0  0  0
   19.4497   -4.8535   17.4951 H   0  0  0  0  0  0  0  0  0  0  0  0
   17.3089   -3.4596   15.3217 H   0  0  0  0  0  0  0  0  0  0  0  0
   18.8424   -1.0881   14.3796 H   0  0  0  0  0  0  0  0  0  0  0  0
   16.5995   -2.6384   12.9552 H   0  0  0  0  0  0  0  0  0  0  0  0
   18.3262   -2.8521   12.6500 H   0  0  0  0  0  0  0  0  0  0  0  0
   17.5452   -1.3167   12.2590 H   0  0  0  0  0  0  0  0  0  0  0  0
   15.9280   -1.3402   15.1926 H   0  0  0  0  0  0  0  0  0  0  0  0
   16.9076    0.7735   13.1887 H   0  0  0  0  0  0  0  0  0  0  0  0
   15.2976    0.7367   14.0240 H   0  0  0  0  0  0  0  0  0  0  0  0
   16.4956    0.9681   16.2560 H   0  0  0  0  0  0  0  0  0  0  0  0
   18.0814    0.9683   15.3926 H   0  0  0  0  0  0  0  0  0  0  0  0
   17.4054   -1.9129   17.8427 H   0  0  0  0  0  0  0  0  0  0  0  0
   16.7091   -2.3616   19.3705 H   0  0  0  0  0  0  0  0  0  0  0  0
  1  2  1  0
  2  3  1  0
  3  4  1  0
  4  5  1  0
  3  6  1  0
  6  7  2  0
  6  8  1  0
  8  9  1  0
  9 10  1  0
 10 11  1  0
 11 12  1  0
 12 13  1  0
 13 14  1  0
 14 15  2  0
 14 16  1  0
 16 17  1  0
 17 18  1  0
 17 19  1  0
 19 20  1  0
 20 21  1  0
 12 22  1  0
 22  9  1  0
 21 19  1  0
  1 23  1  0
  1 24  1  0
  1 25  1  0
  2 26  1  0
  2 27  1  0
  3 28  1  0
  4 29  1  0
  4 30  1  0
  5 31  1  0
  5 32  1  0
  5 33  1  0
  8 34  1  0
  9 35  1  0
 10 36  1  0
 10 37  1  0
 11 38  1  0
 11 39  1  0
 13 40  1  0
 13 41  1  0
 16 42  1  0
 17 43  1  0
 18 44  1  0
 18 45  1  0
 18 46  1  0
 19 47  1  0
 20 48  1  0
 20 49  1  0
 21 50  1  0
 21 51  1  0
 22 52  1  0
 22 53  1  0
M  END
>  <Energy>  (1417) 
102.22149785074983

>  <compound_id>  (1417) 
87634

>  <target_id>  (1417) 
1

>  <reference_id>  (1417) 
97

>  <inspiration_ids>  (1417) 
[97, 27]

>  <energy_score>  (1417) 
16.223696259869115

>  <distance_score>  (1417) 
2.2920977743176345

>  <path>  (1417) 
/opt/xchem-fragalysis-2/maxwin/BulkDock/SCRATCH/511017/C87634-P97/C87634-P97.minimised.mol

>  <scratch_subdir>  (1417) 
/opt/xchem-fragalysis-2/maxwin/BulkDock/SCRATCH/511017/C87634-P97

>  <fragmenstein_runtime>  (1417) 
6.337347507476807

>  <fragmenstein_outcome>  (1417) 
too moved

>  <fragmenstein_mode>  (1417) 
expansion

>  <fragmenstein_error>  (1417) 


$$$$
C87634-P27
     RDKit          3D

 53 54  0  0  0  0  0  0  0  0999 V2000
   11.9857    1.8727   15.9729 C   0  0  0  0  0  0  0  0  0  0  0  0
   13.1375    1.0495   16.5010 C   0  0  0  0  0  0  0  0  0  0  0  0
   12.9110   -0.4769   16.5691 C   0  0  0  0  0  0  0  0  0  0  0  0
   12.3168   -1.0336   15.2577 C   0  0  0  0  0  0  0  0  0  0  0  0
   11.9168   -2.4995   15.2752 C   0  0  0  0  0  0  0  0  0  0  0  0
   14.2789   -1.0532   16.9764 C   0  0  0  0  0  0  0  0  0  0  0  0
   15.2531   -0.4501   16.7660 O   0  0  0  0  0  0  0  0  0  0  0  0
   14.0864   -2.4737   17.5457 N   0  0  0  0  0  0  0  0  0  0  0  0
   15.0426   -3.4712   17.8813 C   0  0  0  0  0  0  0  0  0  0  0  0
   14.8229   -4.5171   18.9375 C   0  0  0  0  0  0  0  0  0  0  0  0
   16.2412   -5.1510   19.0202 C   0  0  0  0  0  0  0  0  0  0  0  0
   17.1943   -4.1561   18.4616 N   0  0  0  0  0  0  0  0  0  0  0  0
   17.7399   -4.5558   17.1165 C   0  0  0  0  0  0  0  0  0  0  0  0
   18.3285   -3.3268   16.3338 C   0  0  0  0  0  0  0  0  0  0  0  0
   19.3942   -2.8946   16.5585 O   0  0  0  0  0  0  0  0  0  0  0  0
   17.2088   -2.8130   15.3654 N   0  0  0  0  0  0  0  0  0  0  0  0
   17.1440   -1.6095   14.5531 C   0  0  0  0  0  0  0  0  0  0  0  0
   18.2970   -1.5158   13.5844 C   0  0  0  0  0  0  0  0  0  0  0  0
   15.7692   -1.4934   13.9252 C   0  0  0  0  0  0  0  0  0  0  0  0
   15.4396   -1.7305   12.4711 C   0  0  0  0  0  0  0  0  0  0  0  0
   15.4380   -0.3306   13.0145 C   0  0  0  0  0  0  0  0  0  0  0  0
   16.3786   -2.9307   18.3754 C   0  0  0  0  0  0  0  0  0  0  0  0
   11.0327    1.6099   16.4359 H   0  0  0  0  0  0  0  0  0  0  0  0
   11.8791    1.7533   14.8896 H   0  0  0  0  0  0  0  0  0  0  0  0
   12.1677    2.9363   16.1603 H   0  0  0  0  0  0  0  0  0  0  0  0
   13.9998    1.2879   15.8641 H   0  0  0  0  0  0  0  0  0  0  0  0
   13.3914    1.4107   17.5067 H   0  0  0  0  0  0  0  0  0  0  0  0
   12.2048   -0.6901   17.3582 H   0  0  0  0  0  0  0  0  0  0  0  0
   11.4030   -0.4785   15.0161 H   0  0  0  0  0  0  0  0  0  0  0  0
   13.0011   -0.8639   14.4265 H   0  0  0  0  0  0  0  0  0  0  0  0
   12.7848   -3.1483   15.3961 H   0  0  0  0  0  0  0  0  0  0  0  0
   11.4333   -2.7717   14.3318 H   0  0  0  0  0  0  0  0  0  0  0  0
   11.2153   -2.7055   16.0848 H   0  0  0  0  0  0  0  0  0  0  0  0
   13.0977   -2.6554   17.6748 H   0  0  0  0  0  0  0  0  0  0  0  0
   15.1490   -4.0008   16.9291 H   0  0  0  0  0  0  0  0  0  0  0  0
   14.0288   -5.2182   18.6892 H   0  0  0  0  0  0  0  0  0  0  0  0
   14.5530   -4.0559   19.8964 H   0  0  0  0  0  0  0  0  0  0  0  0
   16.4897   -5.3524   20.0681 H   0  0  0  0  0  0  0  0  0  0  0  0
   16.2901   -6.1055   18.4881 H   0  0  0  0  0  0  0  0  0  0  0  0
   16.9954   -5.0652   16.4947 H   0  0  0  0  0  0  0  0  0  0  0  0
   18.5586   -5.2687   17.2687 H   0  0  0  0  0  0  0  0  0  0  0  0
   16.3819   -3.3770   15.4767 H   0  0  0  0  0  0  0  0  0  0  0  0
   17.2594   -0.7817   15.2616 H   0  0  0  0  0  0  0  0  0  0  0  0
   18.3002   -2.3589   12.8846 H   0  0  0  0  0  0  0  0  0  0  0  0
   19.2564   -1.5393   14.1128 H   0  0  0  0  0  0  0  0  0  0  0  0
   18.2736   -0.5917   12.9997 H   0  0  0  0  0  0  0  0  0  0  0  0
   15.0054   -1.8075   14.6198 H   0  0  0  0  0  0  0  0  0  0  0  0
   16.2304   -2.0148   11.7884 H   0  0  0  0  0  0  0  0  0  0  0  0
   14.4839   -2.1901   12.2419 H   0  0  0  0  0  0  0  0  0  0  0  0
   16.2291    0.3408   12.7018 H   0  0  0  0  0  0  0  0  0  0  0  0
   14.4865    0.1708   13.1426 H   0  0  0  0  0  0  0  0  0  0  0  0
   16.8134   -2.1368   17.7691 H   0  0  0  0  0  0  0  0  0  0  0  0
   16.2765   -2.4847   19.3757 H   0  0  0  0  0  0  0  0  0  0  0  0
  1  2  1  0
  2  3  1  0
  3  4  1  0
  4  5  1  0
  3  6  1  0
  6  7  2  0
  6  8  1  0
  8  9  1  0
  9 10  1  0
 10 11  1  0
 11 12  1  0
 12 13  1  0
 13 14  1  0
 14 15  2  0
 14 16  1  0
 16 17  1  0
 17 18  1  0
 17 19  1  0
 19 20  1  0
 20 21  1  0
 12 22  1  0
 22  9  1  0
 21 19  1  0
  1 23  1  0
  1 24  1  0
  1 25  1  0
  2 26  1  0
  2 27  1  0
  3 28  1  0
  4 29  1  0
  4 30  1  0
  5 31  1  0
  5 32  1  0
  5 33  1  0
  8 34  1  0
  9 35  1  0
 10 36  1  0
 10 37  1  0
 11 38  1  0
 11 39  1  0
 13 40  1  0
 13 41  1  0
 16 42  1  0
 17 43  1  0
 18 44  1  0
 18 45  1  0
 18 46  1  0
 19 47  1  0
 20 48  1  0
 20 49  1  0
 21 50  1  0
 21 51  1  0
 22 52  1  0
 22 53  1  0
M  END
>  <Energy>  (1418) 
102.96459797396318

>  <compound_id>  (1418) 
87634

>  <target_id>  (1418) 
1

>  <reference_id>  (1418) 
27

>  <inspiration_ids>  (1418) 
[97, 27]

>  <energy_score>  (1418) 
16.9667963830847

>  <distance_score>  (1418) 
2.3603310088791782

>  <path>  (1418) 
/opt/xchem-fragalysis-2/maxwin/BulkDock/SCRATCH/511017/C87634-P27/C87634-P27.minimised.mol

>  <scratch_subdir>  (1418) 
/opt/xchem-fragalysis-2/maxwin/BulkDock/SCRATCH/511017/C87634-P27

>  <fragmenstein_runtime>  (1418) 
6.3620922565460205

>  <fragmenstein_outcome>  (1418) 
too moved

>  <fragmenstein_mode>  (1418) 
expansion

>  <fragmenstein_error>  (1418) 


$$$$
C87635-P97
     RDKit          3D

 53 54  0  0  0  0  0  0  0  0999 V2000
   11.0374    1.0384   15.2182 C   0  0  0  0  0  0  0  0  0  0  0  0
   12.4938    0.7242   15.5232 C   0  0  0  0  0  0  0  0  0  0  0  0
   12.7542   -0.7712   15.7857 C   0  0  0  0  0  0  0  0  0  0  0  0
   12.5361   -1.6295   14.5247 C   0  0  0  0  0  0  0  0  0  0  0  0
   11.5148   -2.7326   14.7647 C   0  0  0  0  0  0  0  0  0  0  0  0
   14.1924   -0.9605   16.3106 C   0  0  0  0  0  0  0  0  0  0  0  0
   14.9845   -0.0725   16.1885 O   0  0  0  0  0  0  0  0  0  0  0  0
   14.3461   -2.2860   16.8350 N   0  0  0  0  0  0  0  0  0  0  0  0
   15.5088   -2.9865   17.2847 C   0  0  0  0  0  0  0  0  0  0  0  0
   15.3534   -4.4338   17.6854 C   0  0  0  0  0  0  0  0  0  0  0  0
   16.7034   -4.7069   18.3548 C   0  0  0  0  0  0  0  0  0  0  0  0
   17.0697   -3.4428   19.0058 N   0  0  0  0  0  0  0  0  0  0  0  0
   18.5101   -3.1113   19.0097 C   0  0  0  0  0  0  0  0  0  0  0  0
   19.2900   -3.1368   17.6616 C   0  0  0  0  0  0  0  0  0  0  0  0
   20.3936   -3.6261   17.6507 O   0  0  0  0  0  0  0  0  0  0  0  0
   18.5212   -2.5515   16.6034 N   0  0  0  0  0  0  0  0  0  0  0  0
   18.8034   -0.9870   16.5142 C   0  0  0  0  0  0  0  0  0  0  0  0
   20.2355   -0.4772   16.3230 C   0  0  0  0  0  0  0  0  0  0  0  0
   18.7924   -2.4590   15.1268 C   0  0  0  0  0  0  0  0  0  0  0  0
   18.1192   -3.5444   14.2935 C   0  0  0  0  0  0  0  0  0  0  0  0
   17.7332   -2.1217   14.0925 C   0  0  0  0  0  0  0  0  0  0  0  0
   16.1817   -2.3868   18.5124 C   0  0  0  0  0  0  0  0  0  0  0  0
   10.8946    2.1215   15.1457 H   0  0  0  0  0  0  0  0  0  0  0  0
   10.7193    0.6011   14.2673 H   0  0  0  0  0  0  0  0  0  0  0  0
   10.3729    0.6625   16.0016 H   0  0  0  0  0  0  0  0  0  0  0  0
   13.1187    1.0797   14.6942 H   0  0  0  0  0  0  0  0  0  0  0  0
   12.7898    1.3070   16.4048 H   0  0  0  0  0  0  0  0  0  0  0  0
   12.0784   -1.0909   16.5841 H   0  0  0  0  0  0  0  0  0  0  0  0
   12.1904   -1.0198   13.6832 H   0  0  0  0  0  0  0  0  0  0  0  0
   13.4752   -2.0869   14.1921 H   0  0  0  0  0  0  0  0  0  0  0  0
   11.8260   -3.4115   15.5629 H   0  0  0  0  0  0  0  0  0  0  0  0
   11.3875   -3.3246   13.8544 H   0  0  0  0  0  0  0  0  0  0  0  0
   10.5438   -2.3101   15.0394 H   0  0  0  0  0  0  0  0  0  0  0  0
   13.4806   -2.7937   16.7068 H   0  0  0  0  0  0  0  0  0  0  0  0
   16.1816   -2.9443   16.4306 H   0  0  0  0  0  0  0  0  0  0  0  0
   14.5250   -4.5655   18.3919 H   0  0  0  0  0  0  0  0  0  0  0  0
   15.1827   -5.0767   16.8186 H   0  0  0  0  0  0  0  0  0  0  0  0
   16.6278   -5.5199   19.0834 H   0  0  0  0  0  0  0  0  0  0  0  0
   17.4258   -5.0083   17.5880 H   0  0  0  0  0  0  0  0  0  0  0  0
   18.6717   -2.1321   19.4761 H   0  0  0  0  0  0  0  0  0  0  0  0
   19.0021   -3.8409   19.6660 H   0  0  0  0  0  0  0  0  0  0  0  0
   18.0674   -0.4597   15.8892 H   0  0  0  0  0  0  0  0  0  0  0  0
   18.5422   -0.6487   17.5268 H   0  0  0  0  0  0  0  0  0  0  0  0
   20.2873    0.5784   16.6122 H   0  0  0  0  0  0  0  0  0  0  0  0
   20.9483   -1.0272   16.9436 H   0  0  0  0  0  0  0  0  0  0  0  0
   20.5695   -0.5297   15.2828 H   0  0  0  0  0  0  0  0  0  0  0  0
   19.8562   -2.4538   14.8776 H   0  0  0  0  0  0  0  0  0  0  0  0
   17.4060   -4.2034   14.7738 H   0  0  0  0  0  0  0  0  0  0  0  0
   18.7068   -4.0264   13.5209 H   0  0  0  0  0  0  0  0  0  0  0  0
   16.7499   -1.8122   14.4274 H   0  0  0  0  0  0  0  0  0  0  0  0
   18.0590   -1.6265   13.1850 H   0  0  0  0  0  0  0  0  0  0  0  0
   15.4309   -2.1820   19.2869 H   0  0  0  0  0  0  0  0  0  0  0  0
   16.6665   -1.4306   18.3053 H   0  0  0  0  0  0  0  0  0  0  0  0
  1  2  1  0
  2  3  1  0
  3  4  1  0
  4  5  1  0
  3  6  1  0
  6  7  2  0
  6  8  1  0
  8  9  1  0
  9 10  1  0
 10 11  1  0
 11 12  1  0
 12 13  1  0
 13 14  1  0
 14 15  2  0
 14 16  1  0
 16 17  1  0
 17 18  1  0
 16 19  1  0
 19 20  1  0
 20 21  1  0
 12 22  1  0
 22  9  1  0
 21 19  1  0
  1 23  1  0
  1 24  1  0
  1 25  1  0
  2 26  1  0
  2 27  1  0
  3 28  1  0
  4 29  1  0
  4 30  1  0
  5 31  1  0
  5 32  1  0
  5 33  1  0
  8 34  1  0
  9 35  1  0
 10 36  1  0
 10 37  1  0
 11 38  1  0
 11 39  1  0
 13 40  1  0
 13 41  1  0
 17 42  1  0
 17 43  1  0
 18 44  1  0
 18 45  1  0
 18 46  1  0
 19 47  1  0
 20 48  1  0
 20 49  1  0
 21 50  1  0
 21 51  1  0
 22 52  1  0
 22 53  1  0
M  END
>  <Energy>  (1419) 
134.75812486338725

>  <compound_id>  (1419) 
87635

>  <target_id>  (1419) 
1

>  <reference_id>  (1419) 
97

>  <inspiration_ids>  (1419) 
[97, 27]

>  <energy_score>  (1419) 
14.787912805902266

>  <distance_score>  (1419) 
3.32234658781688

>  <path>  (1419) 
/opt/xchem-fragalysis-2/maxwin/BulkDock/SCRATCH/511017/C87635-P97/C87635-P97.minimised.mol

>  <scratch_subdir>  (1419) 
/opt/xchem-fragalysis-2/maxwin/BulkDock/SCRATCH/511017/C87635-P97

>  <fragmenstein_runtime>  (1419) 
15.45369577407837

>  <fragmenstein_outcome>  (1419) 
too moved

>  <fragmenstein_mode>  (1419) 
expansion

>  <fragmenstein_error>  (1419) 


$$$$
C87635-P27
     RDKit          3D

 53 54  0  0  0  0  0  0  0  0999 V2000
   12.5129    1.2377   15.5296 C   0  0  0  0  0  0  0  0  0  0  0  0
   13.5571    0.1546   15.7560 C   0  0  0  0  0  0  0  0  0  0  0  0
   12.9561   -1.1527   16.3008 C   0  0  0  0  0  0  0  0  0  0  0  0
   12.0786   -1.9782   15.3452 C   0  0  0  0  0  0  0  0  0  0  0  0
   12.4686   -1.9589   13.8783 C   0  0  0  0  0  0  0  0  0  0  0  0
   14.0221   -2.0222   17.0050 C   0  0  0  0  0  0  0  0  0  0  0  0
   13.8752   -2.2684   18.1652 O   0  0  0  0  0  0  0  0  0  0  0  0
   15.0757   -2.3604   16.1089 N   0  0  0  0  0  0  0  0  0  0  0  0
   16.3305   -3.0174   16.3360 C   0  0  0  0  0  0  0  0  0  0  0  0
   16.2661   -4.4623   16.7752 C   0  0  0  0  0  0  0  0  0  0  0  0
   17.6836   -4.7166   17.2912 C   0  0  0  0  0  0  0  0  0  0  0  0
   18.2005   -3.4148   17.7482 N   0  0  0  0  0  0  0  0  0  0  0  0
   19.5433   -3.0700   17.2342 C   0  0  0  0  0  0  0  0  0  0  0  0
   19.6920   -3.0421   15.6913 C   0  0  0  0  0  0  0  0  0  0  0  0
   20.2448   -3.9510   15.1229 O   0  0  0  0  0  0  0  0  0  0  0  0
   19.0525   -1.8588   15.1671 N   0  0  0  0  0  0  0  0  0  0  0  0
   20.0930   -0.6708   15.0692 C   0  0  0  0  0  0  0  0  0  0  0  0
   19.5026    0.6293   15.6259 C   0  0  0  0  0  0  0  0  0  0  0  0
   18.7735   -1.4370   13.7414 C   0  0  0  0  0  0  0  0  0  0  0  0
   18.0704   -2.4838   12.8840 C   0  0  0  0  0  0  0  0  0  0  0  0
   19.4494   -2.0478   12.5348 C   0  0  0  0  0  0  0  0  0  0  0  0
   17.1696   -2.4097   17.4576 C   0  0  0  0  0  0  0  0  0  0  0  0
   11.7370    0.9118   14.8311 H   0  0  0  0  0  0  0  0  0  0  0  0
   12.0311    1.5220   16.4691 H   0  0  0  0  0  0  0  0  0  0  0  0
   12.9854    2.1337   15.1143 H   0  0  0  0  0  0  0  0  0  0  0  0
   14.1000   -0.0143   14.8198 H   0  0  0  0  0  0  0  0  0  0  0  0
   14.2984    0.5393   16.4682 H   0  0  0  0  0  0  0  0  0  0  0  0
   12.2891   -0.8525   17.1156 H   0  0  0  0  0  0  0  0  0  0  0  0
   12.0449   -3.0207   15.6865 H   0  0  0  0  0  0  0  0  0  0  0  0
   11.0474   -1.6076   15.4141 H   0  0  0  0  0  0  0  0  0  0  0  0
   13.5176   -2.2121   13.7178 H   0  0  0  0  0  0  0  0  0  0  0  0
   12.2855   -0.9764   13.4346 H   0  0  0  0  0  0  0  0  0  0  0  0
   11.8677   -2.6888   13.3282 H   0  0  0  0  0  0  0  0  0  0  0  0
   14.9064   -1.9138   15.2193 H   0  0  0  0  0  0  0  0  0  0  0  0
   16.8505   -2.9765   15.3789 H   0  0  0  0  0  0  0  0  0  0  0  0
   15.5311   -4.6043   17.5760 H   0  0  0  0  0  0  0  0  0  0  0  0
   16.0093   -5.1200   15.9423 H   0  0  0  0  0  0  0  0  0  0  0  0
   17.6721   -5.4352   18.1172 H   0  0  0  0  0  0  0  0  0  0  0  0
   18.2883   -5.1538   16.4894 H   0  0  0  0  0  0  0  0  0  0  0  0
   19.8579   -2.1026   17.6435 H   0  0  0  0  0  0  0  0  0  0  0  0
   20.2668   -3.7989   17.6207 H   0  0  0  0  0  0  0  0  0  0  0  0
   20.8977   -0.9509   15.7658 H   0  0  0  0  0  0  0  0  0  0  0  0
   20.6419   -0.5365   14.1227 H   0  0  0  0  0  0  0  0  0  0  0  0
   18.7020    1.0372   15.0039 H   0  0  0  0  0  0  0  0  0  0  0  0
   19.0957    0.4683   16.6295 H   0  0  0  0  0  0  0  0  0  0  0  0
   20.2865    1.3901   15.6992 H   0  0  0  0  0  0  0  0  0  0  0  0
   18.2442   -0.4867   13.6455 H   0  0  0  0  0  0  0  0  0  0  0  0
   17.9510   -3.4859   13.2797 H   0  0  0  0  0  0  0  0  0  0  0  0
   17.2532   -2.1603   12.2502 H   0  0  0  0  0  0  0  0  0  0  0  0
   19.5809   -1.4234   11.6589 H   0  0  0  0  0  0  0  0  0  0  0  0
   20.2570   -2.7543   12.6941 H   0  0  0  0  0  0  0  0  0  0  0  0
   16.5654   -2.2812   18.3645 H   0  0  0  0  0  0  0  0  0  0  0  0
   17.5543   -1.4143   17.2161 H   0  0  0  0  0  0  0  0  0  0  0  0
  1  2  1  0
  2  3  1  0
  3  4  1  0
  4  5  1  0
  3  6  1  0
  6  7  2  0
  6  8  1  0
  8  9  1  0
  9 10  1  0
 10 11  1  0
 11 12  1  0
 12 13  1  0
 13 14  1  0
 14 15  2  0
 14 16  1  0
 16 17  1  0
 17 18  1  0
 16 19  1  0
 19 20  1  0
 20 21  1  0
 12 22  1  0
 22  9  1  0
 21 19  1  0
  1 23  1  0
  1 24  1  0
  1 25  1  0
  2 26  1  0
  2 27  1  0
  3 28  1  0
  4 29  1  0
  4 30  1  0
  5 31  1  0
  5 32  1  0
  5 33  1  0
  8 34  1  0
  9 35  1  0
 10 36  1  0
 10 37  1  0
 11 38  1  0
 11 39  1  0
 13 40  1  0
 13 41  1  0
 17 42  1  0
 17 43  1  0
 18 44  1  0
 18 45  1  0
 18 46  1  0
 19 47  1  0
 20 48  1  0
 20 49  1  0
 21 50  1  0
 21 51  1  0
 22 52  1  0
 22 53  1  0
M  END
>  <Energy>  (1420) 
134.52463953346367

>  <compound_id>  (1420) 
87635

>  <target_id>  (1420) 
1

>  <reference_id>  (1420) 
27

>  <inspiration_ids>  (1420) 
[97, 27]

>  <energy_score>  (1420) 
14.554427475979281

>  <distance_score>  (1420) 
3.634989883809354

>  <path>  (1420) 
/opt/xchem-fragalysis-2/maxwin/BulkDock/SCRATCH/511017/C87635-P27/C87635-P27.minimised.mol

>  <scratch_subdir>  (1420) 
/opt/xchem-fragalysis-2/maxwin/BulkDock/SCRATCH/511017/C87635-P27

>  <fragmenstein_runtime>  (1420) 
15.62050199508667

>  <fragmenstein_outcome>  (1420) 
too moved

>  <fragmenstein_mode>  (1420) 
expansion

>  <fragmenstein_error>  (1420) 


$$$$
C87632-P97
     RDKit          3D

 56 57  0  0  0  0  0  0  0  0999 V2000
   14.1283    0.4164   17.2146 C   0  0  0  0  0  0  0  0  0  0  0  0
   13.1393    0.0204   16.1461 C   0  0  0  0  0  0  0  0  0  0  0  0
   12.9530   -1.4700   15.7760 C   0  0  0  0  0  0  0  0  0  0  0  0
   11.5127   -1.6285   15.3005 C   0  0  0  0  0  0  0  0  0  0  0  0
   11.1885   -3.0054   14.7821 C   0  0  0  0  0  0  0  0  0  0  0  0
   13.3944   -2.5355   16.8131 C   0  0  0  0  0  0  0  0  0  0  0  0
   12.6590   -3.1855   17.4296 O   0  0  0  0  0  0  0  0  0  0  0  0
   14.9251   -2.4936   16.8176 N   0  0  0  0  0  0  0  0  0  0  0  0
   15.8668   -3.1708   17.6434 C   0  0  0  0  0  0  0  0  0  0  0  0
   15.8998   -4.6773   17.6935 C   0  0  0  0  0  0  0  0  0  0  0  0
   16.8169   -4.9344   18.9086 C   0  0  0  0  0  0  0  0  0  0  0  0
   16.9582   -3.6409   19.6381 N   0  0  0  0  0  0  0  0  0  0  0  0
   18.2951   -3.0014   19.3888 C   0  0  0  0  0  0  0  0  0  0  0  0
   18.2549   -1.4312   19.4285 C   0  0  0  0  0  0  0  0  0  0  0  0
   18.1726   -0.8260   20.4270 O   0  0  0  0  0  0  0  0  0  0  0  0
   18.2399   -0.9410   17.9428 N   0  0  0  0  0  0  0  0  0  0  0  0
   18.0249    0.3791   17.3924 C   0  0  0  0  0  0  0  0  0  0  0  0
   18.0449    0.4975   15.8494 C   0  0  0  0  0  0  0  0  0  0  0  0
   17.1762   -0.4164   15.0218 C   0  0  0  0  0  0  0  0  0  0  0  0
   17.4902   -1.7788   14.8948 C   0  0  0  0  0  0  0  0  0  0  0  0
   16.6613   -2.6415   14.1817 C   0  0  0  0  0  0  0  0  0  0  0  0
   15.5899   -2.1205   13.4698 C   0  0  0  0  0  0  0  0  0  0  0  0
   15.3276   -0.7534   13.5053 C   0  0  0  0  0  0  0  0  0  0  0  0
   16.1068    0.0965   14.2863 C   0  0  0  0  0  0  0  0  0  0  0  0
   15.8231   -2.8421   19.1248 C   0  0  0  0  0  0  0  0  0  0  0  0
   14.0107    1.4759   17.4651 H   0  0  0  0  0  0  0  0  0  0  0  0
   15.1500    0.2824   16.8729 H   0  0  0  0  0  0  0  0  0  0  0  0
   14.0031   -0.1621   18.1313 H   0  0  0  0  0  0  0  0  0  0  0  0
   13.3895    0.5689   15.2291 H   0  0  0  0  0  0  0  0  0  0  0  0
   12.1724    0.4471   16.4237 H   0  0  0  0  0  0  0  0  0  0  0  0
   13.5431   -1.6870   14.8922 H   0  0  0  0  0  0  0  0  0  0  0  0
   11.3105   -0.9045   14.5003 H   0  0  0  0  0  0  0  0  0  0  0  0
   10.8168   -1.3848   16.1019 H   0  0  0  0  0  0  0  0  0  0  0  0
   11.4517   -3.8013   15.4780 H   0  0  0  0  0  0  0  0  0  0  0  0
   11.6789   -3.1965   13.8239 H   0  0  0  0  0  0  0  0  0  0  0  0
   10.1109   -3.0610   14.6523 H   0  0  0  0  0  0  0  0  0  0  0  0
   15.2443   -1.7481   16.2120 H   0  0  0  0  0  0  0  0  0  0  0  0
   16.8192   -2.8732   17.2146 H   0  0  0  0  0  0  0  0  0  0  0  0
   16.2885   -5.1227   16.7730 H   0  0  0  0  0  0  0  0  0  0  0  0
   14.8969   -5.0700   17.8804 H   0  0  0  0  0  0  0  0  0  0  0  0
   16.3474   -5.6719   19.5698 H   0  0  0  0  0  0  0  0  0  0  0  0
   17.7828   -5.3509   18.6012 H   0  0  0  0  0  0  0  0  0  0  0  0
   18.7339   -3.3307   18.4400 H   0  0  0  0  0  0  0  0  0  0  0  0
   18.9865   -3.3290   20.1738 H   0  0  0  0  0  0  0  0  0  0  0  0
   18.4142   -1.7197   17.3293 H   0  0  0  0  0  0  0  0  0  0  0  0
   17.0715    0.7322   17.7942 H   0  0  0  0  0  0  0  0  0  0  0  0
   18.7953    1.0305   17.8199 H   0  0  0  0  0  0  0  0  0  0  0  0
   19.0797    0.3409   15.5139 H   0  0  0  0  0  0  0  0  0  0  0  0
   17.8199    1.5417   15.5956 H   0  0  0  0  0  0  0  0  0  0  0  0
   18.3858   -2.1920   15.3489 H   0  0  0  0  0  0  0  0  0  0  0  0
   16.8957   -3.7001   14.1213 H   0  0  0  0  0  0  0  0  0  0  0  0
   14.9907   -2.7608   12.8288 H   0  0  0  0  0  0  0  0  0  0  0  0
   14.5086   -0.3482   12.9143 H   0  0  0  0  0  0  0  0  0  0  0  0
   15.8750    1.1592   14.3066 H   0  0  0  0  0  0  0  0  0  0  0  0
   15.8697   -1.7717   19.3398 H   0  0  0  0  0  0  0  0  0  0  0  0
   14.8876   -3.1925   19.5826 H   0  0  0  0  0  0  0  0  0  0  0  0
  1  2  1  0
  2  3  1  0
  3  4  1  0
  4  5  1  0
  3  6  1  0
  6  7  2  0
  6  8  1  0
  8  9  1  0
  9 10  1  0
 10 11  1  0
 11 12  1  0
 12 13  1  0
 13 14  1  0
 14 15  2  0
 14 16  1  0
 16 17  1  0
 17 18  1  0
 18 19  1  0
 19 20  2  0
 20 21  1  0
 21 22  2  0
 22 23  1  0
 23 24  2  0
 12 25  1  0
 25  9  1  0
 24 19  1  0
  1 26  1  0
  1 27  1  0
  1 28  1  0
  2 29  1  0
  2 30  1  0
  3 31  1  0
  4 32  1  0
  4 33  1  0
  5 34  1  0
  5 35  1  0
  5 36  1  0
  8 37  1  0
  9 38  1  0
 10 39  1  0
 10 40  1  0
 11 41  1  0
 11 42  1  0
 13 43  1  0
 13 44  1  0
 16 45  1  0
 17 46  1  0
 17 47  1  0
 18 48  1  0
 18 49  1  0
 20 50  1  0
 21 51  1  0
 22 52  1  0
 23 53  1  0
 24 54  1  0
 25 55  1  0
 25 56  1  0
M  END
>  <Energy>  (1421) 
121.17317257785197

>  <compound_id>  (1421) 
87632

>  <target_id>  (1421) 
1

>  <reference_id>  (1421) 
97

>  <inspiration_ids>  (1421) 
[97, 27]

>  <energy_score>  (1421) 
26.088561524100243

>  <distance_score>  (1421) 
2.8252133053216344

>  <path>  (1421) 
/opt/xchem-fragalysis-2/maxwin/BulkDock/SCRATCH/511017/C87632-P97/C87632-P97.minimised.mol

>  <scratch_subdir>  (1421) 
/opt/xchem-fragalysis-2/maxwin/BulkDock/SCRATCH/511017/C87632-P97

>  <fragmenstein_runtime>  (1421) 
4.536389589309692

>  <fragmenstein_outcome>  (1421) 
too moved

>  <fragmenstein_mode>  (1421) 
expansion

>  <fragmenstein_error>  (1421) 


$$$$
C87632-P27
     RDKit          3D

 56 57  0  0  0  0  0  0  0  0999 V2000
   14.7646    2.7638   15.9164 C   0  0  0  0  0  0  0  0  0  0  0  0
   14.4286    1.2881   15.9174 C   0  0  0  0  0  0  0  0  0  0  0  0
   13.2611    1.0167   16.8704 C   0  0  0  0  0  0  0  0  0  0  0  0
   11.9339    1.2868   16.0818 C   0  0  0  0  0  0  0  0  0  0  0  0
   11.2998    0.2342   15.1837 C   0  0  0  0  0  0  0  0  0  0  0  0
   13.4338   -0.3835   17.4720 C   0  0  0  0  0  0  0  0  0  0  0  0
   12.6318   -1.2017   17.2633 O   0  0  0  0  0  0  0  0  0  0  0  0
   14.7929   -0.4743   18.2198 N   0  0  0  0  0  0  0  0  0  0  0  0
   15.4782   -1.6100   18.7753 C   0  0  0  0  0  0  0  0  0  0  0  0
   14.7660   -2.7862   19.4051 C   0  0  0  0  0  0  0  0  0  0  0  0
   15.9561   -3.7298   19.6651 C   0  0  0  0  0  0  0  0  0  0  0  0
   17.1265   -2.8551   19.8891 N   0  0  0  0  0  0  0  0  0  0  0  0
   18.3253   -3.1672   19.0634 C   0  0  0  0  0  0  0  0  0  0  0  0
   18.4667   -2.3653   17.7290 C   0  0  0  0  0  0  0  0  0  0  0  0
   18.9452   -1.2995   17.7018 O   0  0  0  0  0  0  0  0  0  0  0  0
   17.8059   -3.1997   16.5993 N   0  0  0  0  0  0  0  0  0  0  0  0
   17.5113   -2.8527   15.2181 C   0  0  0  0  0  0  0  0  0  0  0  0
   16.3583   -1.8317   15.0472 C   0  0  0  0  0  0  0  0  0  0  0  0
   14.9604   -2.3991   15.1859 C   0  0  0  0  0  0  0  0  0  0  0  0
   14.6312   -3.3787   16.1446 C   0  0  0  0  0  0  0  0  0  0  0  0
   13.3200   -3.8246   16.3460 C   0  0  0  0  0  0  0  0  0  0  0  0
   12.3144   -3.3445   15.5234 C   0  0  0  0  0  0  0  0  0  0  0  0
   12.6371   -2.4542   14.4981 C   0  0  0  0  0  0  0  0  0  0  0  0
   13.9364   -1.9500   14.3491 C   0  0  0  0  0  0  0  0  0  0  0  0
   16.6313   -1.4589   19.7553 C   0  0  0  0  0  0  0  0  0  0  0  0
   13.9236    3.3846   15.5951 H   0  0  0  0  0  0  0  0  0  0  0  0
   15.5952    2.9573   15.2292 H   0  0  0  0  0  0  0  0  0  0  0  0
   15.0760    3.0983   16.9116 H   0  0  0  0  0  0  0  0  0  0  0  0
   14.1839    0.9754   14.8961 H   0  0  0  0  0  0  0  0  0  0  0  0
   15.3430    0.7542   16.1749 H   0  0  0  0  0  0  0  0  0  0  0  0
   13.2947    1.7169   17.7159 H   0  0  0  0  0  0  0  0  0  0  0  0
   12.0913    2.1680   15.4451 H   0  0  0  0  0  0  0  0  0  0  0  0
   11.1659    1.6485   16.7675 H   0  0  0  0  0  0  0  0  0  0  0  0
   10.3878    0.6518   14.7391 H   0  0  0  0  0  0  0  0  0  0  0  0
   11.9630    0.0136   14.3497 H   0  0  0  0  0  0  0  0  0  0  0  0
   10.9851   -0.6572   15.7238 H   0  0  0  0  0  0  0  0  0  0  0  0
   15.2801    0.4105   18.1459 H   0  0  0  0  0  0  0  0  0  0  0  0
   15.9295   -1.9804   17.8597 H   0  0  0  0  0  0  0  0  0  0  0  0
   13.9918   -3.2442   18.7973 H   0  0  0  0  0  0  0  0  0  0  0  0
   14.2917   -2.4871   20.3487 H   0  0  0  0  0  0  0  0  0  0  0  0
   15.7681   -4.3481   20.5488 H   0  0  0  0  0  0  0  0  0  0  0  0
   16.1016   -4.4046   18.8162 H   0  0  0  0  0  0  0  0  0  0  0  0
   18.4148   -4.2439   18.8792 H   0  0  0  0  0  0  0  0  0  0  0  0
   19.2089   -2.9050   19.6597 H   0  0  0  0  0  0  0  0  0  0  0  0
   17.4214   -4.0504   16.9883 H   0  0  0  0  0  0  0  0  0  0  0  0
   18.4276   -2.4013   14.8228 H   0  0  0  0  0  0  0  0  0  0  0  0
   17.3145   -3.7802   14.6719 H   0  0  0  0  0  0  0  0  0  0  0  0
   16.4567   -1.4040   14.0413 H   0  0  0  0  0  0  0  0  0  0  0  0
   16.4896   -1.0138   15.7598 H   0  0  0  0  0  0  0  0  0  0  0  0
   15.3887   -3.8202   16.7697 H   0  0  0  0  0  0  0  0  0  0  0  0
   13.0835   -4.5501   17.1154 H   0  0  0  0  0  0  0  0  0  0  0  0
   11.2929   -3.6901   15.6404 H   0  0  0  0  0  0  0  0  0  0  0  0
   11.8541   -2.1463   13.8079 H   0  0  0  0  0  0  0  0  0  0  0  0
   14.1345   -1.2296   13.5604 H   0  0  0  0  0  0  0  0  0  0  0  0
   17.3866   -0.7319   19.4480 H   0  0  0  0  0  0  0  0  0  0  0  0
   16.2629   -1.1115   20.7295 H   0  0  0  0  0  0  0  0  0  0  0  0
  1  2  1  0
  2  3  1  0
  3  4  1  0
  4  5  1  0
  3  6  1  0
  6  7  2  0
  6  8  1  0
  8  9  1  0
  9 10  1  0
 10 11  1  0
 11 12  1  0
 12 13  1  0
 13 14  1  0
 14 15  2  0
 14 16  1  0
 16 17  1  0
 17 18  1  0
 18 19  1  0
 19 20  2  0
 20 21  1  0
 21 22  2  0
 22 23  1  0
 23 24  2  0
 12 25  1  0
 25  9  1  0
 24 19  1  0
  1 26  1  0
  1 27  1  0
  1 28  1  0
  2 29  1  0
  2 30  1  0
  3 31  1  0
  4 32  1  0
  4 33  1  0
  5 34  1  0
  5 35  1  0
  5 36  1  0
  8 37  1  0
  9 38  1  0
 10 39  1  0
 10 40  1  0
 11 41  1  0
 11 42  1  0
 13 43  1  0
 13 44  1  0
 16 45  1  0
 17 46  1  0
 17 47  1  0
 18 48  1  0
 18 49  1  0
 20 50  1  0
 21 51  1  0
 22 52  1  0
 23 53  1  0
 24 54  1  0
 25 55  1  0
 25 56  1  0
M  END
>  <Energy>  (1422) 
137.13990528949901

>  <compound_id>  (1422) 
87632

>  <target_id>  (1422) 
1

>  <reference_id>  (1422) 
27

>  <inspiration_ids>  (1422) 
[97, 27]

>  <energy_score>  (1422) 
42.05529423574632

>  <distance_score>  (1422) 
2.73203179546008

>  <path>  (1422) 
/opt/xchem-fragalysis-2/maxwin/BulkDock/SCRATCH/511017/C87632-P27/C87632-P27.minimised.mol

>  <scratch_subdir>  (1422) 
/opt/xchem-fragalysis-2/maxwin/BulkDock/SCRATCH/511017/C87632-P27

>  <fragmenstein_runtime>  (1422) 
5.972429275512695

>  <fragmenstein_outcome>  (1422) 
too moved

>  <fragmenstein_mode>  (1422) 
expansion

>  <fragmenstein_error>  (1422) 


$$$$
C87638-P97
     RDKit          3D

 47 48  0  0  0  0  0  0  0  0999 V2000
   13.1557    0.9998   16.0058 C   0  0  0  0  0  0  0  0  0  0  0  0
   13.7203   -0.2537   16.6560 C   0  0  0  0  0  0  0  0  0  0  0  0
   12.9677   -1.5747   16.4066 C   0  0  0  0  0  0  0  0  0  0  0  0
   12.4249   -1.7371   14.9694 C   0  0  0  0  0  0  0  0  0  0  0  0
   11.1826   -2.6167   14.9153 C   0  0  0  0  0  0  0  0  0  0  0  0
   13.6772   -2.9152   16.8570 C   0  0  0  0  0  0  0  0  0  0  0  0
   13.4153   -3.9183   16.3151 O   0  0  0  0  0  0  0  0  0  0  0  0
   14.6152   -2.6393   18.0709 N   0  0  0  0  0  0  0  0  0  0  0  0
   15.3377   -3.5460   18.9129 C   0  0  0  0  0  0  0  0  0  0  0  0
   16.0964   -2.8957   20.0501 C   0  0  0  0  0  0  0  0  0  0  0  0
   17.5915   -2.6873   19.7730 C   0  0  0  0  0  0  0  0  0  0  0  0
   17.8963   -2.0339   18.5199 N   0  0  0  0  0  0  0  0  0  0  0  0
   17.3001   -0.7468   17.8810 C   0  0  0  0  0  0  0  0  0  0  0  0
   16.5282    0.0214   18.3056 O   0  0  0  0  0  0  0  0  0  0  0  0
   17.8807   -0.6113   16.4713 C   0  0  0  0  0  0  0  0  0  0  0  0
   16.9556   -1.1226   15.4836 N   0  0  0  0  0  0  0  0  0  0  0  0
   16.4454   -2.3785   15.4090 C   0  0  0  0  0  0  0  0  0  0  0  0
   15.5953   -2.4442   14.4199 N   0  0  0  0  0  0  0  0  0  0  0  0
   15.6801   -1.2126   13.8562 C   0  0  0  0  0  0  0  0  0  0  0  0
   16.5294   -0.3686   14.4530 N   0  0  0  0  0  0  0  0  0  0  0  0
   15.8761   -4.8427   18.3257 C   0  0  0  0  0  0  0  0  0  0  0  0
   14.6846   -4.8701   19.2270 C   0  0  0  0  0  0  0  0  0  0  0  0
   13.6307    1.8893   16.4332 H   0  0  0  0  0  0  0  0  0  0  0  0
   12.0767    1.0862   16.1588 H   0  0  0  0  0  0  0  0  0  0  0  0
   13.3581    1.0140   14.9304 H   0  0  0  0  0  0  0  0  0  0  0  0
   14.7581   -0.3432   16.3673 H   0  0  0  0  0  0  0  0  0  0  0  0
   13.7369   -0.0540   17.7316 H   0  0  0  0  0  0  0  0  0  0  0  0
   12.0787   -1.5131   17.0195 H   0  0  0  0  0  0  0  0  0  0  0  0
   12.1584   -0.7817   14.5108 H   0  0  0  0  0  0  0  0  0  0  0  0
   13.1760   -2.1911   14.3232 H   0  0  0  0  0  0  0  0  0  0  0  0
   11.2144   -3.4667   15.5989 H   0  0  0  0  0  0  0  0  0  0  0  0
   11.0776   -3.0242   13.9084 H   0  0  0  0  0  0  0  0  0  0  0  0
   10.2930   -2.0287   15.1594 H   0  0  0  0  0  0  0  0  0  0  0  0
   14.6765   -1.6431   18.2312 H   0  0  0  0  0  0  0  0  0  0  0  0
   15.6384   -1.9244   20.2787 H   0  0  0  0  0  0  0  0  0  0  0  0
   16.0004   -3.4857   20.9701 H   0  0  0  0  0  0  0  0  0  0  0  0
   18.1210   -3.6452   19.7687 H   0  0  0  0  0  0  0  0  0  0  0  0
   18.0240   -2.0724   20.5690 H   0  0  0  0  0  0  0  0  0  0  0  0
   18.6036   -2.4210   17.9056 H   0  0  0  0  0  0  0  0  0  0  0  0
   18.0624    0.4501   16.2701 H   0  0  0  0  0  0  0  0  0  0  0  0
   18.8287   -1.1425   16.3501 H   0  0  0  0  0  0  0  0  0  0  0  0
   16.6995   -3.1823   16.0835 H   0  0  0  0  0  0  0  0  0  0  0  0
   15.1160   -0.9195   12.9798 H   0  0  0  0  0  0  0  0  0  0  0  0
   15.7063   -5.0504   17.2744 H   0  0  0  0  0  0  0  0  0  0  0  0
   16.7918   -5.2752   18.7081 H   0  0  0  0  0  0  0  0  0  0  0  0
   13.6974   -5.0389   18.8104 H   0  0  0  0  0  0  0  0  0  0  0  0
   14.8019   -5.2994   20.2154 H   0  0  0  0  0  0  0  0  0  0  0  0
  1  2  1  0
  2  3  1  0
  3  4  1  0
  4  5  1  0
  3  6  1  0
  6  7  2  0
  6  8  1  0
  8  9  1  0
  9 10  1  0
 10 11  1  0
 11 12  1  0
 12 13  1  0
 13 14  2  0
 13 15  1  0
 15 16  1  0
 16 17  1  0
 17 18  2  0
 18 19  1  0
 19 20  2  0
  9 21  1  0
 21 22  1  0
 22  9  1  0
 20 16  1  0
  1 23  1  0
  1 24  1  0
  1 25  1  0
  2 26  1  0
  2 27  1  0
  3 28  1  0
  4 29  1  0
  4 30  1  0
  5 31  1  0
  5 32  1  0
  5 33  1  0
  8 34  1  0
 10 35  1  0
 10 36  1  0
 11 37  1  0
 11 38  1  0
 12 39  1  0
 15 40  1  0
 15 41  1  0
 17 42  1  0
 19 43  1  0
 21 44  1  0
 21 45  1  0
 22 46  1  0
 22 47  1  0
M  END
>  <Energy>  (1423) 
57.541601615847526

>  <compound_id>  (1423) 
87638

>  <target_id>  (1423) 
1

>  <reference_id>  (1423) 
97

>  <inspiration_ids>  (1423) 
[97, 27]

>  <energy_score>  (1423) 
26.636576524734863

>  <distance_score>  (1423) 
2.450749171981696

>  <path>  (1423) 
/opt/xchem-fragalysis-2/maxwin/BulkDock/SCRATCH/511017/C87638-P97/C87638-P97.minimised.mol

>  <scratch_subdir>  (1423) 
/opt/xchem-fragalysis-2/maxwin/BulkDock/SCRATCH/511017/C87638-P97

>  <fragmenstein_runtime>  (1423) 
10.188852787017822

>  <fragmenstein_outcome>  (1423) 
too moved

>  <fragmenstein_mode>  (1423) 
expansion

>  <fragmenstein_error>  (1423) 


$$$$
C87638-P27
     RDKit          3D

 47 48  0  0  0  0  0  0  0  0999 V2000
   12.0284    1.6279   15.8072 C   0  0  0  0  0  0  0  0  0  0  0  0
   13.1637    0.8610   16.4458 C   0  0  0  0  0  0  0  0  0  0  0  0
   12.9519   -0.6667   16.6051 C   0  0  0  0  0  0  0  0  0  0  0  0
   12.5834   -1.3143   15.2588 C   0  0  0  0  0  0  0  0  0  0  0  0
   12.0276   -2.7244   15.3390 C   0  0  0  0  0  0  0  0  0  0  0  0
   14.2224   -1.1451   17.3718 C   0  0  0  0  0  0  0  0  0  0  0  0
   15.1372   -0.4260   17.4806 O   0  0  0  0  0  0  0  0  0  0  0  0
   14.0001   -2.5773   17.9221 N   0  0  0  0  0  0  0  0  0  0  0  0
   14.8148   -3.3795   18.7953 C   0  0  0  0  0  0  0  0  0  0  0  0
   15.4970   -2.6425   19.9452 C   0  0  0  0  0  0  0  0  0  0  0  0
   17.0253   -2.5113   19.8284 C   0  0  0  0  0  0  0  0  0  0  0  0
   17.4471   -2.0238   18.5426 N   0  0  0  0  0  0  0  0  0  0  0  0
   17.8449   -0.5910   18.0865 C   0  0  0  0  0  0  0  0  0  0  0  0
   17.9646    0.3959   18.7051 O   0  0  0  0  0  0  0  0  0  0  0  0
   18.1038   -0.5993   16.5713 C   0  0  0  0  0  0  0  0  0  0  0  0
   17.2070   -1.4367   15.7964 N   0  0  0  0  0  0  0  0  0  0  0  0
   16.2084   -1.0846   14.9459 C   0  0  0  0  0  0  0  0  0  0  0  0
   15.5847   -2.1658   14.5378 N   0  0  0  0  0  0  0  0  0  0  0  0
   16.3033   -3.1714   15.1035 C   0  0  0  0  0  0  0  0  0  0  0  0
   17.3300   -2.7837   15.8616 N   0  0  0  0  0  0  0  0  0  0  0  0
   15.4877   -4.6116   18.2145 C   0  0  0  0  0  0  0  0  0  0  0  0
   14.3097   -4.7648   19.1150 C   0  0  0  0  0  0  0  0  0  0  0  0
   12.1682    2.7033   15.9606 H   0  0  0  0  0  0  0  0  0  0  0  0
   11.0573    1.3518   16.2257 H   0  0  0  0  0  0  0  0  0  0  0  0
   11.9938    1.4633   14.7257 H   0  0  0  0  0  0  0  0  0  0  0  0
   14.0681    1.0626   15.8578 H   0  0  0  0  0  0  0  0  0  0  0  0
   13.3352    1.3006   17.4381 H   0  0  0  0  0  0  0  0  0  0  0  0
   12.1023   -0.8140   17.2620 H   0  0  0  0  0  0  0  0  0  0  0  0
   11.7901   -0.7263   14.7837 H   0  0  0  0  0  0  0  0  0  0  0  0
   13.4189   -1.2809   14.5620 H   0  0  0  0  0  0  0  0  0  0  0  0
   12.7805   -3.4343   15.6852 H   0  0  0  0  0  0  0  0  0  0  0  0
   11.6914   -3.0527   14.3500 H   0  0  0  0  0  0  0  0  0  0  0  0
   11.1708   -2.7696   16.0130 H   0  0  0  0  0  0  0  0  0  0  0  0
   13.0573   -2.8790   17.7088 H   0  0  0  0  0  0  0  0  0  0  0  0
   15.0686   -1.6351   20.0258 H   0  0  0  0  0  0  0  0  0  0  0  0
   15.2642   -3.1303   20.9000 H   0  0  0  0  0  0  0  0  0  0  0  0
   17.5107   -3.4793   19.9833 H   0  0  0  0  0  0  0  0  0  0  0  0
   17.3922   -1.8199   20.5938 H   0  0  0  0  0  0  0  0  0  0  0  0
   17.3584   -2.6302   17.7247 H   0  0  0  0  0  0  0  0  0  0  0  0
   18.0010    0.4231   16.1915 H   0  0  0  0  0  0  0  0  0  0  0  0
   19.1269   -0.9423   16.3862 H   0  0  0  0  0  0  0  0  0  0  0  0
   15.9619   -0.0609   14.7032 H   0  0  0  0  0  0  0  0  0  0  0  0
   16.1018   -4.2203   14.9493 H   0  0  0  0  0  0  0  0  0  0  0  0
   15.3547   -4.7921   17.1568 H   0  0  0  0  0  0  0  0  0  0  0  0
   16.4487   -4.9399   18.5896 H   0  0  0  0  0  0  0  0  0  0  0  0
   13.3454   -5.0346   18.7035 H   0  0  0  0  0  0  0  0  0  0  0  0
   14.4763   -5.1664   20.1086 H   0  0  0  0  0  0  0  0  0  0  0  0
  1  2  1  0
  2  3  1  0
  3  4  1  0
  4  5  1  0
  3  6  1  0
  6  7  2  0
  6  8  1  0
  8  9  1  0
  9 10  1  0
 10 11  1  0
 11 12  1  0
 12 13  1  0
 13 14  2  0
 13 15  1  0
 15 16  1  0
 16 17  1  0
 17 18  2  0
 18 19  1  0
 19 20  2  0
  9 21  1  0
 21 22  1  0
 22  9  1  0
 20 16  1  0
  1 23  1  0
  1 24  1  0
  1 25  1  0
  2 26  1  0
  2 27  1  0
  3 28  1  0
  4 29  1  0
  4 30  1  0
  5 31  1  0
  5 32  1  0
  5 33  1  0
  8 34  1  0
 10 35  1  0
 10 36  1  0
 11 37  1  0
 11 38  1  0
 12 39  1  0
 15 40  1  0
 15 41  1  0
 17 42  1  0
 19 43  1  0
 21 44  1  0
 21 45  1  0
 22 46  1  0
 22 47  1  0
M  END
>  <Energy>  (1424) 
47.241003691315861

>  <compound_id>  (1424) 
87638

>  <target_id>  (1424) 
1

>  <reference_id>  (1424) 
27

>  <inspiration_ids>  (1424) 
[97, 27]

>  <energy_score>  (1424) 
16.33597860020285

>  <distance_score>  (1424) 
2.3876335343316426

>  <path>  (1424) 
/opt/xchem-fragalysis-2/maxwin/BulkDock/SCRATCH/511017/C87638-P27/C87638-P27.minimised.mol

>  <scratch_subdir>  (1424) 
/opt/xchem-fragalysis-2/maxwin/BulkDock/SCRATCH/511017/C87638-P27

>  <fragmenstein_runtime>  (1424) 
9.703218221664429

>  <fragmenstein_outcome>  (1424) 
too moved

>  <fragmenstein_mode>  (1424) 
expansion

>  <fragmenstein_error>  (1424) 


$$$$
C74020-P97
     RDKit          3D

 50 51  0  0  0  0  0  0  0  0999 V2000
   18.3608   -3.5291   10.8581 C   0  0  0  0  0  0  0  0  0  0  0  0
   18.8917   -3.5256   12.2826 C   0  0  0  0  0  0  0  0  0  0  0  0
   18.7369   -2.2215   13.0775 C   0  0  0  0  0  0  0  0  0  0  0  0
   19.2359   -0.9423   12.3808 C   0  0  0  0  0  0  0  0  0  0  0  0
   20.7334   -0.9612   12.1047 C   0  0  0  0  0  0  0  0  0  0  0  0
   17.3366   -2.0419   13.7121 C   0  0  0  0  0  0  0  0  0  0  0  0
   17.1697   -2.2212   14.8582 O   0  0  0  0  0  0  0  0  0  0  0  0
   16.3550   -1.5195   12.6175 N   0  0  0  0  0  0  0  0  0  0  0  0
   14.9835   -1.0166   12.7316 C   0  0  0  0  0  0  0  0  0  0  0  0
   14.0574   -1.6357   13.7961 C   0  0  0  0  0  0  0  0  0  0  0  0
   13.7646   -0.2097   14.3342 C   0  0  0  0  0  0  0  0  0  0  0  0
   13.7665    0.1742   15.8108 C   0  0  0  0  0  0  0  0  0  0  0  0
   14.9805   -0.2439   16.6314 C   0  0  0  0  0  0  0  0  0  0  0  0
   15.1517   -1.6637   16.7050 N   0  0  0  0  0  0  0  0  0  0  0  0
   14.1243   -2.7867   16.9887 C   0  0  0  0  0  0  0  0  0  0  0  0
   12.9975   -2.7232   17.2819 O   0  0  0  0  0  0  0  0  0  0  0  0
   14.8194   -4.1184   16.7799 C   0  0  0  0  0  0  0  0  0  0  0  0
   15.7822   -4.4327   17.8653 C   0  0  0  0  0  0  0  0  0  0  0  0
   17.1522   -4.5688   17.7735 C   0  0  0  0  0  0  0  0  0  0  0  0
   17.6899   -4.9774   19.0215 C   0  0  0  0  0  0  0  0  0  0  0  0
   16.8322   -5.1364   20.0239 N   0  0  0  0  0  0  0  0  0  0  0  0
   15.3085   -4.7735   19.4740 S   0  0  0  0  0  0  0  0  0  0  0  0
   14.9334    0.3171   13.4994 C   0  0  0  0  0  0  0  0  0  0  0  0
   18.5908   -4.4900   10.3854 H   0  0  0  0  0  0  0  0  0  0  0  0
   17.2761   -3.4061   10.8278 H   0  0  0  0  0  0  0  0  0  0  0  0
   18.8213   -2.7479   10.2476 H   0  0  0  0  0  0  0  0  0  0  0  0
   19.9588   -3.7783   12.2374 H   0  0  0  0  0  0  0  0  0  0  0  0
   18.4201   -4.3420   12.8403 H   0  0  0  0  0  0  0  0  0  0  0  0
   19.3894   -2.3477   13.9569 H   0  0  0  0  0  0  0  0  0  0  0  0
   18.7094   -0.7649   11.4373 H   0  0  0  0  0  0  0  0  0  0  0  0
   19.0130   -0.0773   13.0187 H   0  0  0  0  0  0  0  0  0  0  0  0
   21.0472   -0.0059   11.6717 H   0  0  0  0  0  0  0  0  0  0  0  0
   21.0003   -1.7512   11.3967 H   0  0  0  0  0  0  0  0  0  0  0  0
   21.3018   -1.1161   13.0272 H   0  0  0  0  0  0  0  0  0  0  0  0
   16.8032   -1.5641   11.7123 H   0  0  0  0  0  0  0  0  0  0  0  0
   14.5064   -0.9564   11.7457 H   0  0  0  0  0  0  0  0  0  0  0  0
   13.1783   -2.1481   13.3917 H   0  0  0  0  0  0  0  0  0  0  0  0
   14.5714   -2.3227   14.4575 H   0  0  0  0  0  0  0  0  0  0  0  0
   12.8110    0.1472   13.9107 H   0  0  0  0  0  0  0  0  0  0  0  0
   12.8625   -0.2406   16.2732 H   0  0  0  0  0  0  0  0  0  0  0  0
   13.6653    1.2644   15.8868 H   0  0  0  0  0  0  0  0  0  0  0  0
   15.9069    0.1831   16.2389 H   0  0  0  0  0  0  0  0  0  0  0  0
   14.8581    0.1115   17.6600 H   0  0  0  0  0  0  0  0  0  0  0  0
   16.0745   -2.0749   16.5568 H   0  0  0  0  0  0  0  0  0  0  0  0
   15.3327   -4.1053   15.8135 H   0  0  0  0  0  0  0  0  0  0  0  0
   14.0464   -4.8893   16.7103 H   0  0  0  0  0  0  0  0  0  0  0  0
   17.7259   -4.4129   16.8688 H   0  0  0  0  0  0  0  0  0  0  0  0
   18.7337   -5.1734   19.2302 H   0  0  0  0  0  0  0  0  0  0  0  0
   15.8443    0.5533   14.0592 H   0  0  0  0  0  0  0  0  0  0  0  0
   14.6940    1.1893   12.8813 H   0  0  0  0  0  0  0  0  0  0  0  0
  1  2  1  0
  2  3  1  0
  3  4  1  0
  4  5  1  0
  3  6  1  0
  6  7  2  0
  6  8  1  0
  8  9  1  0
  9 10  1  0
 10 11  1  0
 11 12  1  0
 12 13  1  0
 13 14  1  0
 14 15  1  0
 15 16  2  0
 15 17  1  0
 17 18  1  0
 18 19  2  0
 19 20  1  0
 20 21  2  0
 21 22  1  0
 11 23  1  0
 23  9  1  0
 22 18  1  0
  1 24  1  0
  1 25  1  0
  1 26  1  0
  2 27  1  0
  2 28  1  0
  3 29  1  0
  4 30  1  0
  4 31  1  0
  5 32  1  0
  5 33  1  0
  5 34  1  0
  8 35  1  0
  9 36  1  0
 10 37  1  0
 10 38  1  0
 11 39  1  0
 12 40  1  0
 12 41  1  0
 13 42  1  0
 13 43  1  0
 14 44  1  0
 17 45  1  0
 17 46  1  0
 19 47  1  0
 20 48  1  0
 23 49  1  0
 23 50  1  0
M  END
>  <Energy>  (1425) 
30.573568810904774

>  <compound_id>  (1425) 
74020

>  <target_id>  (1425) 
1

>  <reference_id>  (1425) 
97

>  <inspiration_ids>  (1425) 
[97, 27]

>  <energy_score>  (1425) 
-17.612596767470002

>  <distance_score>  (1425) 
3.2182180322720333

>  <path>  (1425) 
/opt/xchem-fragalysis-2/maxwin/BulkDock/SCRATCH/511017/C74020-P97/C74020-P97.minimised.mol

>  <scratch_subdir>  (1425) 
/opt/xchem-fragalysis-2/maxwin/BulkDock/SCRATCH/511017/C74020-P97

>  <fragmenstein_runtime>  (1425) 
12.519798040390015

>  <fragmenstein_outcome>  (1425) 
too moved

>  <fragmenstein_mode>  (1425) 
expansion

>  <fragmenstein_error>  (1425) 


$$$$
C74020-P27
     RDKit          3D

 50 51  0  0  0  0  0  0  0  0999 V2000
   13.7872    1.8322   11.4563 C   0  0  0  0  0  0  0  0  0  0  0  0
   12.4188    2.3818   11.8338 C   0  0  0  0  0  0  0  0  0  0  0  0
   12.3496    2.8945   13.2828 C   0  0  0  0  0  0  0  0  0  0  0  0
   10.9634    3.4420   13.6619 C   0  0  0  0  0  0  0  0  0  0  0  0
   10.5926    4.7196   12.9238 C   0  0  0  0  0  0  0  0  0  0  0  0
   12.7930    1.8691   14.3458 C   0  0  0  0  0  0  0  0  0  0  0  0
   13.6221    2.1342   15.1275 O   0  0  0  0  0  0  0  0  0  0  0  0
   11.9223    0.5846   14.1936 N   0  0  0  0  0  0  0  0  0  0  0  0
   11.9643   -0.6829   14.9226 C   0  0  0  0  0  0  0  0  0  0  0  0
   12.8214   -1.7765   14.2563 C   0  0  0  0  0  0  0  0  0  0  0  0
   13.9577   -1.4729   15.2725 C   0  0  0  0  0  0  0  0  0  0  0  0
   15.1306   -0.5955   14.8184 C   0  0  0  0  0  0  0  0  0  0  0  0
   16.3454   -1.4501   14.4607 C   0  0  0  0  0  0  0  0  0  0  0  0
   16.9826   -1.9786   15.6444 N   0  0  0  0  0  0  0  0  0  0  0  0
   17.5689   -3.3899   15.9303 C   0  0  0  0  0  0  0  0  0  0  0  0
   17.6944   -4.3138   15.2265 O   0  0  0  0  0  0  0  0  0  0  0  0
   17.9846   -3.4176   17.4029 C   0  0  0  0  0  0  0  0  0  0  0  0
   16.9050   -4.0522   18.2160 C   0  0  0  0  0  0  0  0  0  0  0  0
   15.5814   -3.7044   18.3859 C   0  0  0  0  0  0  0  0  0  0  0  0
   14.9504   -4.6102   19.2794 C   0  0  0  0  0  0  0  0  0  0  0  0
   15.6934   -5.5945   19.7719 N   0  0  0  0  0  0  0  0  0  0  0  0
   17.2259   -5.4349   19.1785 S   0  0  0  0  0  0  0  0  0  0  0  0
   12.8924   -0.7731   16.1442 C   0  0  0  0  0  0  0  0  0  0  0  0
   13.8239    1.6212   10.3829 H   0  0  0  0  0  0  0  0  0  0  0  0
   14.5797    2.5512   11.6859 H   0  0  0  0  0  0  0  0  0  0  0  0
   13.9993    0.8979   11.9821 H   0  0  0  0  0  0  0  0  0  0  0  0
   11.6595    1.6166   11.6425 H   0  0  0  0  0  0  0  0  0  0  0  0
   12.1972    3.2091   11.1499 H   0  0  0  0  0  0  0  0  0  0  0  0
   13.0684    3.7232   13.3639 H   0  0  0  0  0  0  0  0  0  0  0  0
   10.1964    2.6859   13.4752 H   0  0  0  0  0  0  0  0  0  0  0  0
   10.9344    3.6477   14.7396 H   0  0  0  0  0  0  0  0  0  0  0  0
    9.6239    5.0883   13.2761 H   0  0  0  0  0  0  0  0  0  0  0  0
   10.5113    4.5533   11.8468 H   0  0  0  0  0  0  0  0  0  0  0  0
   11.3366    5.5032   13.0976 H   0  0  0  0  0  0  0  0  0  0  0  0
   11.2437    0.7215   13.4574 H   0  0  0  0  0  0  0  0  0  0  0  0
   10.9404   -1.0089   15.1402 H   0  0  0  0  0  0  0  0  0  0  0  0
   12.3841   -2.7754   14.3671 H   0  0  0  0  0  0  0  0  0  0  0  0
   13.0728   -1.6260   13.2025 H   0  0  0  0  0  0  0  0  0  0  0  0
   14.3184   -2.3856   15.7627 H   0  0  0  0  0  0  0  0  0  0  0  0
   14.8483   -0.0042   13.9439 H   0  0  0  0  0  0  0  0  0  0  0  0
   15.4077    0.1040   15.6162 H   0  0  0  0  0  0  0  0  0  0  0  0
   16.0826   -2.2840   13.8023 H   0  0  0  0  0  0  0  0  0  0  0  0
   17.0958   -0.8337   13.9559 H   0  0  0  0  0  0  0  0  0  0  0  0
   16.9498   -1.4447   16.5050 H   0  0  0  0  0  0  0  0  0  0  0  0
   18.9287   -3.9724   17.4641 H   0  0  0  0  0  0  0  0  0  0  0  0
   18.1990   -2.4112   17.7777 H   0  0  0  0  0  0  0  0  0  0  0  0
   15.0943   -2.8599   17.9205 H   0  0  0  0  0  0  0  0  0  0  0  0
   13.9147   -4.5653   19.5967 H   0  0  0  0  0  0  0  0  0  0  0  0
   12.4953   -1.4341   16.9244 H   0  0  0  0  0  0  0  0  0  0  0  0
   13.1821    0.1605   16.6312 H   0  0  0  0  0  0  0  0  0  0  0  0
  1  2  1  0
  2  3  1  0
  3  4  1  0
  4  5  1  0
  3  6  1  0
  6  7  2  0
  6  8  1  0
  8  9  1  0
  9 10  1  0
 10 11  1  0
 11 12  1  0
 12 13  1  0
 13 14  1  0
 14 15  1  0
 15 16  2  0
 15 17  1  0
 17 18  1  0
 18 19  2  0
 19 20  1  0
 20 21  2  0
 21 22  1  0
 11 23  1  0
 23  9  1  0
 22 18  1  0
  1 24  1  0
  1 25  1  0
  1 26  1  0
  2 27  1  0
  2 28  1  0
  3 29  1  0
  4 30  1  0
  4 31  1  0
  5 32  1  0
  5 33  1  0
  5 34  1  0
  8 35  1  0
  9 36  1  0
 10 37  1  0
 10 38  1  0
 11 39  1  0
 12 40  1  0
 12 41  1  0
 13 42  1  0
 13 43  1  0
 14 44  1  0
 17 45  1  0
 17 46  1  0
 19 47  1  0
 20 48  1  0
 23 49  1  0
 23 50  1  0
M  END
>  <Energy>  (1426) 
32.959261678929536

>  <compound_id>  (1426) 
74020

>  <target_id>  (1426) 
1

>  <reference_id>  (1426) 
27

>  <inspiration_ids>  (1426) 
[97, 27]

>  <energy_score>  (1426) 
-15.226903899443826

>  <distance_score>  (1426) 
2.6492316110598644

>  <path>  (1426) 
/opt/xchem-fragalysis-2/maxwin/BulkDock/SCRATCH/511017/C74020-P27/C74020-P27.minimised.mol

>  <scratch_subdir>  (1426) 
/opt/xchem-fragalysis-2/maxwin/BulkDock/SCRATCH/511017/C74020-P27

>  <fragmenstein_runtime>  (1426) 
12.902898073196411

>  <fragmenstein_outcome>  (1426) 
too moved

>  <fragmenstein_mode>  (1426) 
expansion

>  <fragmenstein_error>  (1426) 


$$$$
C87639-P97
     RDKit          3D

 49 49  0  0  0  0  0  0  0  0999 V2000
   17.2894   -1.3882   14.6620 C   0  0  0  0  0  0  0  0  0  0  0  0
   17.7756   -2.8058   14.4127 C   0  0  0  0  0  0  0  0  0  0  0  0
   17.5052   -3.7027   15.5075 N   0  0  0  0  0  0  0  0  0  0  0  0
   18.1354   -5.0768   15.8647 C   0  0  0  0  0  0  0  0  0  0  0  0
   19.0229   -5.6546   15.3694 O   0  0  0  0  0  0  0  0  0  0  0  0
   17.3397   -5.6581   17.0703 C   0  0  0  0  0  0  0  0  0  0  0  0
   16.7252   -4.6005   17.8907 N   0  0  0  0  0  0  0  0  0  0  0  0
   17.6900   -3.8622   18.6888 C   0  0  0  0  0  0  0  0  0  0  0  0
   17.0450   -2.5260   19.0618 C   0  0  0  0  0  0  0  0  0  0  0  0
   15.5340   -2.6199   19.3509 C   0  0  0  0  0  0  0  0  0  0  0  0
   14.7047   -2.1855   18.2300 N   0  0  0  0  0  0  0  0  0  0  0  0
   14.8451   -0.9613   17.2892 C   0  0  0  0  0  0  0  0  0  0  0  0
   15.6868   -0.1560   17.2169 O   0  0  0  0  0  0  0  0  0  0  0  0
   13.5560   -0.8830   16.4206 C   0  0  0  0  0  0  0  0  0  0  0  0
   13.5538    0.4343   15.6268 C   0  0  0  0  0  0  0  0  0  0  0  0
   13.3289    1.6760   16.4774 C   0  0  0  0  0  0  0  0  0  0  0  0
   13.3672   -2.0702   15.4572 C   0  0  0  0  0  0  0  0  0  0  0  0
   11.9106   -2.2851   15.0482 C   0  0  0  0  0  0  0  0  0  0  0  0
   15.1808   -4.0425   19.7851 C   0  0  0  0  0  0  0  0  0  0  0  0
   15.6103   -5.0622   18.7204 C   0  0  0  0  0  0  0  0  0  0  0  0
   17.5527   -0.7413   13.8198 H   0  0  0  0  0  0  0  0  0  0  0  0
   16.2052   -1.3692   14.7778 H   0  0  0  0  0  0  0  0  0  0  0  0
   17.7416   -0.9758   15.5692 H   0  0  0  0  0  0  0  0  0  0  0  0
   18.8551   -2.8202   14.2321 H   0  0  0  0  0  0  0  0  0  0  0  0
   17.2901   -3.2200   13.5248 H   0  0  0  0  0  0  0  0  0  0  0  0
   16.7969   -3.4621   16.2010 H   0  0  0  0  0  0  0  0  0  0  0  0
   18.0065   -6.2870   17.6710 H   0  0  0  0  0  0  0  0  0  0  0  0
   16.5687   -6.2933   16.6256 H   0  0  0  0  0  0  0  0  0  0  0  0
   17.9822   -4.4253   19.5847 H   0  0  0  0  0  0  0  0  0  0  0  0
   18.6161   -3.6503   18.1414 H   0  0  0  0  0  0  0  0  0  0  0  0
   17.5517   -2.1585   19.9636 H   0  0  0  0  0  0  0  0  0  0  0  0
   17.2552   -1.7913   18.2783 H   0  0  0  0  0  0  0  0  0  0  0  0
   15.2928   -1.9191   20.1588 H   0  0  0  0  0  0  0  0  0  0  0  0
   13.8877   -2.7229   17.9666 H   0  0  0  0  0  0  0  0  0  0  0  0
   12.7135   -0.8685   17.1103 H   0  0  0  0  0  0  0  0  0  0  0  0
   14.5011    0.5467   15.0842 H   0  0  0  0  0  0  0  0  0  0  0  0
   12.7699    0.4206   14.8611 H   0  0  0  0  0  0  0  0  0  0  0  0
   13.9866    1.7195   17.3489 H   0  0  0  0  0  0  0  0  0  0  0  0
   12.2938    1.7296   16.8212 H   0  0  0  0  0  0  0  0  0  0  0  0
   13.5117    2.5734   15.8766 H   0  0  0  0  0  0  0  0  0  0  0  0
   13.9664   -1.9152   14.5522 H   0  0  0  0  0  0  0  0  0  0  0  0
   13.7350   -3.0007   15.9019 H   0  0  0  0  0  0  0  0  0  0  0  0
   11.4831   -1.3918   14.5860 H   0  0  0  0  0  0  0  0  0  0  0  0
   11.8364   -3.1024   14.3247 H   0  0  0  0  0  0  0  0  0  0  0  0
   11.3011   -2.5496   15.9149 H   0  0  0  0  0  0  0  0  0  0  0  0
   14.1059   -4.1392   19.9807 H   0  0  0  0  0  0  0  0  0  0  0  0
   15.6989   -4.2650   20.7269 H   0  0  0  0  0  0  0  0  0  0  0  0
   14.7582   -5.1941   18.0508 H   0  0  0  0  0  0  0  0  0  0  0  0
   15.8238   -6.0236   19.2021 H   0  0  0  0  0  0  0  0  0  0  0  0
  1  2  1  0
  2  3  1  0
  3  4  1  0
  4  5  2  0
  4  6  1  0
  6  7  1  0
  7  8  1  0
  8  9  1  0
  9 10  1  0
 10 11  1  0
 11 12  1  0
 12 13  2  0
 12 14  1  0
 14 15  1  0
 15 16  1  0
 14 17  1  0
 17 18  1  0
 10 19  1  0
 19 20  1  0
 20  7  1  0
  1 21  1  0
  1 22  1  0
  1 23  1  0
  2 24  1  0
  2 25  1  0
  3 26  1  0
  6 27  1  0
  6 28  1  0
  8 29  1  0
  8 30  1  0
  9 31  1  0
  9 32  1  0
 10 33  1  0
 11 34  1  0
 14 35  1  0
 15 36  1  0
 15 37  1  0
 16 38  1  0
 16 39  1  0
 16 40  1  0
 17 41  1  0
 17 42  1  0
 18 43  1  0
 18 44  1  0
 18 45  1  0
 19 46  1  0
 19 47  1  0
 20 48  1  0
 20 49  1  0
M  END
>  <Energy>  (1427) 
40.410882605561838

>  <compound_id>  (1427) 
87639

>  <target_id>  (1427) 
1

>  <reference_id>  (1427) 
97

>  <inspiration_ids>  (1427) 
[97, 27]

>  <energy_score>  (1427) 
-11.797898305512689

>  <distance_score>  (1427) 
2.7306367768079833

>  <path>  (1427) 
/opt/xchem-fragalysis-2/maxwin/BulkDock/SCRATCH/511017/C87639-P97/C87639-P97.minimised.mol

>  <scratch_subdir>  (1427) 
/opt/xchem-fragalysis-2/maxwin/BulkDock/SCRATCH/511017/C87639-P97

>  <fragmenstein_runtime>  (1427) 
6.692302465438843

>  <fragmenstein_outcome>  (1427) 
too moved

>  <fragmenstein_mode>  (1427) 
expansion

>  <fragmenstein_error>  (1427) 


$$$$
C87639-P27
     RDKit          3D

 49 49  0  0  0  0  0  0  0  0999 V2000
   17.4973   -1.6174   14.9518 C   0  0  0  0  0  0  0  0  0  0  0  0
   17.6378   -3.1197   14.7324 C   0  0  0  0  0  0  0  0  0  0  0  0
   18.0467   -3.8489   15.9132 N   0  0  0  0  0  0  0  0  0  0  0  0
   17.5450   -5.2073   16.4867 C   0  0  0  0  0  0  0  0  0  0  0  0
   16.7807   -5.9782   16.0501 O   0  0  0  0  0  0  0  0  0  0  0  0
   18.3005   -5.4913   17.8039 C   0  0  0  0  0  0  0  0  0  0  0  0
   17.6951   -4.9825   19.0473 N   0  0  0  0  0  0  0  0  0  0  0  0
   17.8927   -3.5748   19.3260 C   0  0  0  0  0  0  0  0  0  0  0  0
   16.8312   -2.6560   18.7493 C   0  0  0  0  0  0  0  0  0  0  0  0
   15.4143   -3.0998   19.0802 C   0  0  0  0  0  0  0  0  0  0  0  0
   14.4954   -2.3014   18.2911 N   0  0  0  0  0  0  0  0  0  0  0  0
   14.1905   -2.3260   16.7707 C   0  0  0  0  0  0  0  0  0  0  0  0
   14.5743   -3.0424   15.9352 O   0  0  0  0  0  0  0  0  0  0  0  0
   13.2808   -1.1242   16.4569 C   0  0  0  0  0  0  0  0  0  0  0  0
   14.1601    0.1379   16.4807 C   0  0  0  0  0  0  0  0  0  0  0  0
   13.3751    1.4379   16.5263 C   0  0  0  0  0  0  0  0  0  0  0  0
   12.5945   -1.3146   15.0876 C   0  0  0  0  0  0  0  0  0  0  0  0
   11.5509   -2.4251   15.1090 C   0  0  0  0  0  0  0  0  0  0  0  0
   15.2214   -4.5901   18.8155 C   0  0  0  0  0  0  0  0  0  0  0  0
   16.3524   -5.4485   19.3807 C   0  0  0  0  0  0  0  0  0  0  0  0
   16.7609   -1.3934   15.7256 H   0  0  0  0  0  0  0  0  0  0  0  0
   18.4515   -1.1842   15.2689 H   0  0  0  0  0  0  0  0  0  0  0  0
   17.1851   -1.1253   14.0259 H   0  0  0  0  0  0  0  0  0  0  0  0
   18.3908   -3.3145   13.9625 H   0  0  0  0  0  0  0  0  0  0  0  0
   16.6905   -3.5414   14.3906 H   0  0  0  0  0  0  0  0  0  0  0  0
   18.7718   -3.4764   16.5116 H   0  0  0  0  0  0  0  0  0  0  0  0
   19.3369   -5.1437   17.7138 H   0  0  0  0  0  0  0  0  0  0  0  0
   18.3868   -6.5832   17.8841 H   0  0  0  0  0  0  0  0  0  0  0  0
   17.8982   -3.4460   20.4167 H   0  0  0  0  0  0  0  0  0  0  0  0
   18.8866   -3.2440   19.0006 H   0  0  0  0  0  0  0  0  0  0  0  0
   16.9519   -2.5743   17.6711 H   0  0  0  0  0  0  0  0  0  0  0  0
   16.9907   -1.6390   19.1314 H   0  0  0  0  0  0  0  0  0  0  0  0
   15.2009   -2.8870   20.1343 H   0  0  0  0  0  0  0  0  0  0  0  0
   13.9293   -1.5950   18.7375 H   0  0  0  0  0  0  0  0  0  0  0  0
   12.5062   -1.0541   17.2213 H   0  0  0  0  0  0  0  0  0  0  0  0
   14.8348    0.1264   17.3450 H   0  0  0  0  0  0  0  0  0  0  0  0
   14.8083    0.1486   15.5953 H   0  0  0  0  0  0  0  0  0  0  0  0
   12.7978    1.5137   17.4497 H   0  0  0  0  0  0  0  0  0  0  0  0
   12.6934    1.5397   15.6782 H   0  0  0  0  0  0  0  0  0  0  0  0
   14.0637    2.2890   16.4999 H   0  0  0  0  0  0  0  0  0  0  0  0
   12.0944   -0.3927   14.7730 H   0  0  0  0  0  0  0  0  0  0  0  0
   13.3411   -1.5423   14.3166 H   0  0  0  0  0  0  0  0  0  0  0  0
   10.6661   -2.0992   15.6617 H   0  0  0  0  0  0  0  0  0  0  0  0
   11.2453   -2.6719   14.0898 H   0  0  0  0  0  0  0  0  0  0  0  0
   11.9261   -3.3422   15.5710 H   0  0  0  0  0  0  0  0  0  0  0  0
   15.1503   -4.7637   17.7390 H   0  0  0  0  0  0  0  0  0  0  0  0
   14.2622   -4.9174   19.2355 H   0  0  0  0  0  0  0  0  0  0  0  0
   16.2203   -6.4943   19.0801 H   0  0  0  0  0  0  0  0  0  0  0  0
   16.2617   -5.4515   20.4749 H   0  0  0  0  0  0  0  0  0  0  0  0
  1  2  1  0
  2  3  1  0
  3  4  1  0
  4  5  2  0
  4  6  1  0
  6  7  1  0
  7  8  1  0
  8  9  1  0
  9 10  1  0
 10 11  1  0
 11 12  1  0
 12 13  2  0
 12 14  1  0
 14 15  1  0
 15 16  1  0
 14 17  1  0
 17 18  1  0
 10 19  1  0
 19 20  1  0
 20  7  1  0
  1 21  1  0
  1 22  1  0
  1 23  1  0
  2 24  1  0
  2 25  1  0
  3 26  1  0
  6 27  1  0
  6 28  1  0
  8 29  1  0
  8 30  1  0
  9 31  1  0
  9 32  1  0
 10 33  1  0
 11 34  1  0
 14 35  1  0
 15 36  1  0
 15 37  1  0
 16 38  1  0
 16 39  1  0
 16 40  1  0
 17 41  1  0
 17 42  1  0
 18 43  1  0
 18 44  1  0
 18 45  1  0
 19 46  1  0
 19 47  1  0
 20 48  1  0
 20 49  1  0
M  END
>  <Energy>  (1428) 
44.952023188083565

>  <compound_id>  (1428) 
87639

>  <target_id>  (1428) 
1

>  <reference_id>  (1428) 
27

>  <inspiration_ids>  (1428) 
[97, 27]

>  <energy_score>  (1428) 
-7.256757722990216

>  <distance_score>  (1428) 
2.736035050521266

>  <path>  (1428) 
/opt/xchem-fragalysis-2/maxwin/BulkDock/SCRATCH/511017/C87639-P27/C87639-P27.minimised.mol

>  <scratch_subdir>  (1428) 
/opt/xchem-fragalysis-2/maxwin/BulkDock/SCRATCH/511017/C87639-P27

>  <fragmenstein_runtime>  (1428) 
4.439780235290527

>  <fragmenstein_outcome>  (1428) 
too moved

>  <fragmenstein_mode>  (1428) 
expansion

>  <fragmenstein_error>  (1428) 


$$$$
C87640-P97
     RDKit          3D

 56 57  0  0  0  0  0  0  0  0999 V2000
   14.1969    1.0337   16.5109 C   0  0  0  0  0  0  0  0  0  0  0  0
   14.7893   -0.3694   16.5340 C   0  0  0  0  0  0  0  0  0  0  0  0
   13.7378   -1.4888   16.4827 C   0  0  0  0  0  0  0  0  0  0  0  0
   13.0664   -1.5671   15.0927 C   0  0  0  0  0  0  0  0  0  0  0  0
   11.8148   -2.4384   15.0957 C   0  0  0  0  0  0  0  0  0  0  0  0
   14.3883   -2.8475   16.8699 C   0  0  0  0  0  0  0  0  0  0  0  0
   14.5738   -3.6564   16.0116 O   0  0  0  0  0  0  0  0  0  0  0  0
   14.6360   -2.9079   18.2812 N   0  0  0  0  0  0  0  0  0  0  0  0
   15.0991   -4.0025   19.1233 C   0  0  0  0  0  0  0  0  0  0  0  0
   16.3504   -4.6847   18.5523 C   0  0  0  0  0  0  0  0  0  0  0  0
   17.5968   -4.4699   19.4101 C   0  0  0  0  0  0  0  0  0  0  0  0
   17.7329   -3.1173   19.9544 N   0  0  0  0  0  0  0  0  0  0  0  0
   17.9740   -2.0659   18.9377 C   0  0  0  0  0  0  0  0  0  0  0  0
   19.0856   -2.4032   17.9228 C   0  0  0  0  0  0  0  0  0  0  0  0
   20.2490   -2.4361   18.2326 O   0  0  0  0  0  0  0  0  0  0  0  0
   18.4434   -2.6849   16.6637 N   0  0  0  0  0  0  0  0  0  0  0  0
   18.3246   -1.3613   15.7984 C   0  0  0  0  0  0  0  0  0  0  0  0
   19.5612   -0.4792   15.5941 C   0  0  0  0  0  0  0  0  0  0  0  0
   19.0018   -3.2126   15.3779 C   0  0  0  0  0  0  0  0  0  0  0  0
   18.1160   -3.8123   14.3034 C   0  0  0  0  0  0  0  0  0  0  0  0
   18.8716   -4.7225   15.2058 C   0  0  0  0  0  0  0  0  0  0  0  0
   16.5765   -2.7545   20.7921 C   0  0  0  0  0  0  0  0  0  0  0  0
   15.3044   -3.5846   20.5764 C   0  0  0  0  0  0  0  0  0  0  0  0
   13.4947    1.1790   17.3354 H   0  0  0  0  0  0  0  0  0  0  0  0
   13.6780    1.2445   15.5723 H   0  0  0  0  0  0  0  0  0  0  0  0
   14.9952    1.7756   16.6172 H   0  0  0  0  0  0  0  0  0  0  0  0
   15.4776   -0.4773   15.6883 H   0  0  0  0  0  0  0  0  0  0  0  0
   15.3932   -0.4579   17.4433 H   0  0  0  0  0  0  0  0  0  0  0  0
   12.9538   -1.2695   17.2080 H   0  0  0  0  0  0  0  0  0  0  0  0
   12.7694   -0.5715   14.7477 H   0  0  0  0  0  0  0  0  0  0  0  0
   13.7746   -1.9529   14.3497 H   0  0  0  0  0  0  0  0  0  0  0  0
   11.4722   -2.5998   14.0703 H   0  0  0  0  0  0  0  0  0  0  0  0
   11.0083   -1.9484   15.6489 H   0  0  0  0  0  0  0  0  0  0  0  0
   11.9899   -3.4184   15.5467 H   0  0  0  0  0  0  0  0  0  0  0  0
   14.2794   -2.0683   18.7141 H   0  0  0  0  0  0  0  0  0  0  0  0
   14.2763   -4.7279   19.0852 H   0  0  0  0  0  0  0  0  0  0  0  0
   16.1690   -5.7657   18.4977 H   0  0  0  0  0  0  0  0  0  0  0  0
   16.5471   -4.3657   17.5258 H   0  0  0  0  0  0  0  0  0  0  0  0
   18.4905   -4.7644   18.8477 H   0  0  0  0  0  0  0  0  0  0  0  0
   17.5706   -5.1732   20.2541 H   0  0  0  0  0  0  0  0  0  0  0  0
   17.0511   -1.8274   18.4024 H   0  0  0  0  0  0  0  0  0  0  0  0
   18.2889   -1.1417   19.4391 H   0  0  0  0  0  0  0  0  0  0  0  0
   17.7193   -1.4746   14.8861 H   0  0  0  0  0  0  0  0  0  0  0  0
   17.6743   -0.7456   16.4353 H   0  0  0  0  0  0  0  0  0  0  0  0
   20.0917   -0.3004   16.5336 H   0  0  0  0  0  0  0  0  0  0  0  0
   19.2503    0.4956   15.2020 H   0  0  0  0  0  0  0  0  0  0  0  0
   20.2704   -0.8970   14.8751 H   0  0  0  0  0  0  0  0  0  0  0  0
   20.0385   -2.9333   15.1825 H   0  0  0  0  0  0  0  0  0  0  0  0
   18.4397   -3.7215   13.2740 H   0  0  0  0  0  0  0  0  0  0  0  0
   17.0385   -3.7709   14.4335 H   0  0  0  0  0  0  0  0  0  0  0  0
   18.3090   -5.2803   15.9455 H   0  0  0  0  0  0  0  0  0  0  0  0
   19.7193   -5.2604   14.7986 H   0  0  0  0  0  0  0  0  0  0  0  0
   16.8776   -2.8680   21.8412 H   0  0  0  0  0  0  0  0  0  0  0  0
   16.3284   -1.6901   20.6847 H   0  0  0  0  0  0  0  0  0  0  0  0
   14.4365   -3.0262   20.9463 H   0  0  0  0  0  0  0  0  0  0  0  0
   15.3726   -4.4925   21.1908 H   0  0  0  0  0  0  0  0  0  0  0  0
  1  2  1  0
  2  3  1  0
  3  4  1  0
  4  5  1  0
  3  6  1  0
  6  7  2  0
  6  8  1  0
  8  9  1  0
  9 10  1  0
 10 11  1  0
 11 12  1  0
 12 13  1  0
 13 14  1  0
 14 15  2  0
 14 16  1  0
 16 17  1  0
 17 18  1  0
 16 19  1  0
 19 20  1  0
 20 21  1  0
 12 22  1  0
 22 23  1  0
 23  9  1  0
 21 19  1  0
  1 24  1  0
  1 25  1  0
  1 26  1  0
  2 27  1  0
  2 28  1  0
  3 29  1  0
  4 30  1  0
  4 31  1  0
  5 32  1  0
  5 33  1  0
  5 34  1  0
  8 35  1  0
  9 36  1  0
 10 37  1  0
 10 38  1  0
 11 39  1  0
 11 40  1  0
 13 41  1  0
 13 42  1  0
 17 43  1  0
 17 44  1  0
 18 45  1  0
 18 46  1  0
 18 47  1  0
 19 48  1  0
 20 49  1  0
 20 50  1  0
 21 51  1  0
 21 52  1  0
 22 53  1  0
 22 54  1  0
 23 55  1  0
 23 56  1  0
M  END
>  <Energy>  (1429) 
115.8594198678274

>  <compound_id>  (1429) 
87640

>  <target_id>  (1429) 
1

>  <reference_id>  (1429) 
97

>  <inspiration_ids>  (1429) 
[97, 27]

>  <energy_score>  (1429) 
8.349841830204326

>  <distance_score>  (1429) 
2.8158234423935418

>  <path>  (1429) 
/opt/xchem-fragalysis-2/maxwin/BulkDock/SCRATCH/511017/C87640-P97/C87640-P97.minimised.mol

>  <scratch_subdir>  (1429) 
/opt/xchem-fragalysis-2/maxwin/BulkDock/SCRATCH/511017/C87640-P97

>  <fragmenstein_runtime>  (1429) 
20.422786474227905

>  <fragmenstein_outcome>  (1429) 
too moved

>  <fragmenstein_mode>  (1429) 
expansion

>  <fragmenstein_error>  (1429) 


$$$$
C87640-P27
     RDKit          3D

 56 57  0  0  0  0  0  0  0  0999 V2000
   13.0951    1.1245   16.3285 C   0  0  0  0  0  0  0  0  0  0  0  0
   13.6318    0.4667   15.0676 C   0  0  0  0  0  0  0  0  0  0  0  0
   13.6909   -1.0702   15.0618 C   0  0  0  0  0  0  0  0  0  0  0  0
   12.3948   -1.8290   14.7142 C   0  0  0  0  0  0  0  0  0  0  0  0
   11.0972   -1.2614   15.2568 C   0  0  0  0  0  0  0  0  0  0  0  0
   14.5567   -1.5927   16.2363 C   0  0  0  0  0  0  0  0  0  0  0  0
   15.7363   -1.4018   16.1515 O   0  0  0  0  0  0  0  0  0  0  0  0
   13.7835   -2.2235   17.2629 N   0  0  0  0  0  0  0  0  0  0  0  0
   14.1918   -2.9168   18.4800 C   0  0  0  0  0  0  0  0  0  0  0  0
   14.7948   -4.2799   18.1514 C   0  0  0  0  0  0  0  0  0  0  0  0
   16.2965   -4.1943   17.9102 C   0  0  0  0  0  0  0  0  0  0  0  0
   17.0594   -3.6099   19.0258 N   0  0  0  0  0  0  0  0  0  0  0  0
   18.1376   -2.7108   18.5307 C   0  0  0  0  0  0  0  0  0  0  0  0
   19.0730   -3.4129   17.5196 C   0  0  0  0  0  0  0  0  0  0  0  0
   19.8882   -4.2277   17.8735 O   0  0  0  0  0  0  0  0  0  0  0  0
   18.6954   -2.9763   16.1946 N   0  0  0  0  0  0  0  0  0  0  0  0
   19.5769   -1.7348   15.7542 C   0  0  0  0  0  0  0  0  0  0  0  0
   18.7171   -0.5933   15.2010 C   0  0  0  0  0  0  0  0  0  0  0  0
   19.1163   -3.4759   14.8390 C   0  0  0  0  0  0  0  0  0  0  0  0
   20.3143   -4.3661   14.6077 C   0  0  0  0  0  0  0  0  0  0  0  0
   18.9566   -4.9782   14.6338 C   0  0  0  0  0  0  0  0  0  0  0  0
   16.2137   -2.9147   20.0051 C   0  0  0  0  0  0  0  0  0  0  0  0
   15.1082   -2.0708   19.3693 C   0  0  0  0  0  0  0  0  0  0  0  0
   12.0188    0.9845   16.4247 H   0  0  0  0  0  0  0  0  0  0  0  0
   13.2702    2.2050   16.2835 H   0  0  0  0  0  0  0  0  0  0  0  0
   13.5848    0.7493   17.2313 H   0  0  0  0  0  0  0  0  0  0  0  0
   14.6528    0.8447   14.9205 H   0  0  0  0  0  0  0  0  0  0  0  0
   13.0567    0.8169   14.2019 H   0  0  0  0  0  0  0  0  0  0  0  0
   14.3310   -1.3160   14.1961 H   0  0  0  0  0  0  0  0  0  0  0  0
   12.2978   -1.8538   13.6203 H   0  0  0  0  0  0  0  0  0  0  0  0
   12.4790   -2.8776   15.0223 H   0  0  0  0  0  0  0  0  0  0  0  0
   10.8487   -0.3108   14.7750 H   0  0  0  0  0  0  0  0  0  0  0  0
   11.1423   -1.1035   16.3332 H   0  0  0  0  0  0  0  0  0  0  0  0
   10.2737   -1.9541   15.0592 H   0  0  0  0  0  0  0  0  0  0  0  0
   12.8050   -2.1337   17.0390 H   0  0  0  0  0  0  0  0  0  0  0  0
   13.2602   -3.1115   19.0210 H   0  0  0  0  0  0  0  0  0  0  0  0
   14.6032   -4.9735   18.9804 H   0  0  0  0  0  0  0  0  0  0  0  0
   14.3011   -4.6920   17.2649 H   0  0  0  0  0  0  0  0  0  0  0  0
   16.6860   -5.2015   17.7204 H   0  0  0  0  0  0  0  0  0  0  0  0
   16.4292   -3.6362   16.9813 H   0  0  0  0  0  0  0  0  0  0  0  0
   17.7201   -1.8006   18.0852 H   0  0  0  0  0  0  0  0  0  0  0  0
   18.7721   -2.3942   19.3678 H   0  0  0  0  0  0  0  0  0  0  0  0
   20.0031   -1.3522   16.6945 H   0  0  0  0  0  0  0  0  0  0  0  0
   20.4811   -1.9230   15.1511 H   0  0  0  0  0  0  0  0  0  0  0  0
   18.1459   -0.8829   14.3153 H   0  0  0  0  0  0  0  0  0  0  0  0
   19.3552    0.2546   14.9321 H   0  0  0  0  0  0  0  0  0  0  0  0
   18.0112   -0.2453   15.9607 H   0  0  0  0  0  0  0  0  0  0  0  0
   18.6527   -2.9494   14.0009 H   0  0  0  0  0  0  0  0  0  0  0  0
   20.9753   -4.5731   15.4423 H   0  0  0  0  0  0  0  0  0  0  0  0
   20.8224   -4.2898   13.6540 H   0  0  0  0  0  0  0  0  0  0  0  0
   18.6947   -5.5908   15.4895 H   0  0  0  0  0  0  0  0  0  0  0  0
   18.5297   -5.3188   13.6997 H   0  0  0  0  0  0  0  0  0  0  0  0
   15.7569   -3.6663   20.6622 H   0  0  0  0  0  0  0  0  0  0  0  0
   16.8226   -2.2901   20.6708 H   0  0  0  0  0  0  0  0  0  0  0  0
   15.5549   -1.2392   18.8128 H   0  0  0  0  0  0  0  0  0  0  0  0
   14.5092   -1.6036   20.1609 H   0  0  0  0  0  0  0  0  0  0  0  0
  1  2  1  0
  2  3  1  0
  3  4  1  0
  4  5  1  0
  3  6  1  0
  6  7  2  0
  6  8  1  0
  8  9  1  0
  9 10  1  0
 10 11  1  0
 11 12  1  0
 12 13  1  0
 13 14  1  0
 14 15  2  0
 14 16  1  0
 16 17  1  0
 17 18  1  0
 16 19  1  0
 19 20  1  0
 20 21  1  0
 12 22  1  0
 22 23  1  0
 23  9  1  0
 21 19  1  0
  1 24  1  0
  1 25  1  0
  1 26  1  0
  2 27  1  0
  2 28  1  0
  3 29  1  0
  4 30  1  0
  4 31  1  0
  5 32  1  0
  5 33  1  0
  5 34  1  0
  8 35  1  0
  9 36  1  0
 10 37  1  0
 10 38  1  0
 11 39  1  0
 11 40  1  0
 13 41  1  0
 13 42  1  0
 17 43  1  0
 17 44  1  0
 18 45  1  0
 18 46  1  0
 18 47  1  0
 19 48  1  0
 20 49  1  0
 20 50  1  0
 21 51  1  0
 21 52  1  0
 22 53  1  0
 22 54  1  0
 23 55  1  0
 23 56  1  0
M  END
>  <Energy>  (1430) 
120.56340139730963

>  <compound_id>  (1430) 
87640

>  <target_id>  (1430) 
1

>  <reference_id>  (1430) 
27

>  <inspiration_ids>  (1430) 
[97, 27]

>  <energy_score>  (1430) 
13.0538233596873

>  <distance_score>  (1430) 
3.2573913294937267

>  <path>  (1430) 
/opt/xchem-fragalysis-2/maxwin/BulkDock/SCRATCH/511017/C87640-P27/C87640-P27.minimised.mol

>  <scratch_subdir>  (1430) 
/opt/xchem-fragalysis-2/maxwin/BulkDock/SCRATCH/511017/C87640-P27

>  <fragmenstein_runtime>  (1430) 
20.73081946372986

>  <fragmenstein_outcome>  (1430) 
too moved

>  <fragmenstein_mode>  (1430) 
expansion

>  <fragmenstein_error>  (1430) 


$$$$
C87642-P97
     RDKit          3D

 56 57  0  0  0  0  0  0  0  0999 V2000
   13.2683    0.8004   16.4071 C   0  0  0  0  0  0  0  0  0  0  0  0
   13.7458   -0.5923   16.8236 C   0  0  0  0  0  0  0  0  0  0  0  0
   12.8583   -1.7459   16.3286 C   0  0  0  0  0  0  0  0  0  0  0  0
   12.8110   -1.8351   14.8082 C   0  0  0  0  0  0  0  0  0  0  0  0
   11.6253   -2.6373   14.3157 C   0  0  0  0  0  0  0  0  0  0  0  0
   13.0499   -3.1691   16.9607 C   0  0  0  0  0  0  0  0  0  0  0  0
   12.1730   -3.9329   16.8927 O   0  0  0  0  0  0  0  0  0  0  0  0
   14.4056   -3.2693   17.6809 N   0  0  0  0  0  0  0  0  0  0  0  0
   15.0119   -4.3728   18.3945 C   0  0  0  0  0  0  0  0  0  0  0  0
   16.1700   -4.9819   17.6056 C   0  0  0  0  0  0  0  0  0  0  0  0
   17.5563   -4.5608   18.1025 C   0  0  0  0  0  0  0  0  0  0  0  0
   17.6532   -3.2692   18.7644 N   0  0  0  0  0  0  0  0  0  0  0  0
   18.2069   -2.1516   17.9732 C   0  0  0  0  0  0  0  0  0  0  0  0
   17.4271   -1.7750   16.6750 C   0  0  0  0  0  0  0  0  0  0  0  0
   16.6175   -2.4639   16.1957 O   0  0  0  0  0  0  0  0  0  0  0  0
   18.0172   -0.4237   16.1838 N   0  0  0  0  0  0  0  0  0  0  0  0
   17.7962    0.3085   14.9476 C   0  0  0  0  0  0  0  0  0  0  0  0
   18.3465   -0.5173   13.7996 C   0  0  0  0  0  0  0  0  0  0  0  0
   16.3420    0.6719   14.7756 C   0  0  0  0  0  0  0  0  0  0  0  0
   15.5204    0.2326   13.5759 C   0  0  0  0  0  0  0  0  0  0  0  0
   15.9028    1.6672   13.7208 C   0  0  0  0  0  0  0  0  0  0  0  0
   16.5799   -2.9206   19.6879 C   0  0  0  0  0  0  0  0  0  0  0  0
   15.4594   -3.9501   19.7863 C   0  0  0  0  0  0  0  0  0  0  0  0
   13.4903    1.0134   15.3621 H   0  0  0  0  0  0  0  0  0  0  0  0
   13.7672    1.5655   17.0103 H   0  0  0  0  0  0  0  0  0  0  0  0
   12.1907    0.9249   16.5105 H   0  0  0  0  0  0  0  0  0  0  0  0
   13.8111   -0.6102   17.9155 H   0  0  0  0  0  0  0  0  0  0  0  0
   14.7600   -0.7397   16.4587 H   0  0  0  0  0  0  0  0  0  0  0  0
   11.8478   -1.4596   16.6358 H   0  0  0  0  0  0  0  0  0  0  0  0
   13.7432   -2.2584   14.4221 H   0  0  0  0  0  0  0  0  0  0  0  0
   12.6925   -0.8392   14.3747 H   0  0  0  0  0  0  0  0  0  0  0  0
   10.6899   -2.2078   14.6845 H   0  0  0  0  0  0  0  0  0  0  0  0
   11.6522   -3.6766   14.6254 H   0  0  0  0  0  0  0  0  0  0  0  0
   11.6292   -2.6368   13.2264 H   0  0  0  0  0  0  0  0  0  0  0  0
   14.8935   -2.3920   17.6022 H   0  0  0  0  0  0  0  0  0  0  0  0
   14.2161   -5.1129   18.5039 H   0  0  0  0  0  0  0  0  0  0  0  0
   16.1310   -6.0714   17.7188 H   0  0  0  0  0  0  0  0  0  0  0  0
   16.0597   -4.7949   16.5319 H   0  0  0  0  0  0  0  0  0  0  0  0
   17.8821   -5.3099   18.8376 H   0  0  0  0  0  0  0  0  0  0  0  0
   18.2844   -4.6514   17.2865 H   0  0  0  0  0  0  0  0  0  0  0  0
   18.2877   -1.2648   18.6133 H   0  0  0  0  0  0  0  0  0  0  0  0
   19.2273   -2.4123   17.6661 H   0  0  0  0  0  0  0  0  0  0  0  0
   18.6457   -0.0532   16.8863 H   0  0  0  0  0  0  0  0  0  0  0  0
   18.3785    1.2324   15.0401 H   0  0  0  0  0  0  0  0  0  0  0  0
   19.4017   -0.7606   13.9714 H   0  0  0  0  0  0  0  0  0  0  0  0
   17.8149   -1.4686   13.6835 H   0  0  0  0  0  0  0  0  0  0  0  0
   18.2907    0.0256   12.8502 H   0  0  0  0  0  0  0  0  0  0  0  0
   15.8846    0.8564   15.7366 H   0  0  0  0  0  0  0  0  0  0  0  0
   15.9703   -0.3308   12.7672 H   0  0  0  0  0  0  0  0  0  0  0  0
   14.4786   -0.0098   13.6975 H   0  0  0  0  0  0  0  0  0  0  0  0
   15.1249    2.3765   13.9812 H   0  0  0  0  0  0  0  0  0  0  0  0
   16.6454    2.0654   13.0384 H   0  0  0  0  0  0  0  0  0  0  0  0
   17.0119   -2.7721   20.6846 H   0  0  0  0  0  0  0  0  0  0  0  0
   16.1366   -1.9550   19.4114 H   0  0  0  0  0  0  0  0  0  0  0  0
   15.8051   -4.8274   20.3476 H   0  0  0  0  0  0  0  0  0  0  0  0
   14.6197   -3.5216   20.3472 H   0  0  0  0  0  0  0  0  0  0  0  0
  1  2  1  0
  2  3  1  0
  3  4  1  0
  4  5  1  0
  3  6  1  0
  6  7  2  0
  6  8  1  0
  8  9  1  0
  9 10  1  0
 10 11  1  0
 11 12  1  0
 12 13  1  0
 13 14  1  0
 14 15  2  0
 14 16  1  0
 16 17  1  0
 17 18  1  0
 17 19  1  0
 19 20  1  0
 20 21  1  0
 12 22  1  0
 22 23  1  0
 23  9  1  0
 21 19  1  0
  1 24  1  0
  1 25  1  0
  1 26  1  0
  2 27  1  0
  2 28  1  0
  3 29  1  0
  4 30  1  0
  4 31  1  0
  5 32  1  0
  5 33  1  0
  5 34  1  0
  8 35  1  0
  9 36  1  0
 10 37  1  0
 10 38  1  0
 11 39  1  0
 11 40  1  0
 13 41  1  0
 13 42  1  0
 16 43  1  0
 17 44  1  0
 18 45  1  0
 18 46  1  0
 18 47  1  0
 19 48  1  0
 20 49  1  0
 20 50  1  0
 21 51  1  0
 21 52  1  0
 22 53  1  0
 22 54  1  0
 23 55  1  0
 23 56  1  0
M  END
>  <Energy>  (1431) 
80.0264108995474

>  <compound_id>  (1431) 
87642

>  <target_id>  (1431) 
1

>  <reference_id>  (1431) 
97

>  <inspiration_ids>  (1431) 
[97, 27]

>  <energy_score>  (1431) 
-2.9338679080131556

>  <distance_score>  (1431) 
2.2962963899029822

>  <path>  (1431) 
/opt/xchem-fragalysis-2/maxwin/BulkDock/SCRATCH/511017/C87642-P97/C87642-P97.minimised.mol

>  <scratch_subdir>  (1431) 
/opt/xchem-fragalysis-2/maxwin/BulkDock/SCRATCH/511017/C87642-P97

>  <fragmenstein_runtime>  (1431) 
8.53864312171936

>  <fragmenstein_outcome>  (1431) 
too moved

>  <fragmenstein_mode>  (1431) 
expansion

>  <fragmenstein_error>  (1431) 


$$$$
C87642-P27
     RDKit          3D

 56 57  0  0  0  0  0  0  0  0999 V2000
   13.8137    0.7878   16.3321 C   0  0  0  0  0  0  0  0  0  0  0  0
   12.9281   -0.2492   16.9649 C   0  0  0  0  0  0  0  0  0  0  0  0
   12.8159   -1.6567   16.3777 C   0  0  0  0  0  0  0  0  0  0  0  0
   12.4461   -1.6362   14.8890 C   0  0  0  0  0  0  0  0  0  0  0  0
   11.5361   -2.8105   14.5712 C   0  0  0  0  0  0  0  0  0  0  0  0
   14.0918   -2.4618   16.6398 C   0  0  0  0  0  0  0  0  0  0  0  0
   15.0296   -2.3349   15.9598 O   0  0  0  0  0  0  0  0  0  0  0  0
   13.8804   -3.3289   17.9051 N   0  0  0  0  0  0  0  0  0  0  0  0
   14.8174   -4.1512   18.6534 C   0  0  0  0  0  0  0  0  0  0  0  0
   15.9318   -4.7535   17.7921 C   0  0  0  0  0  0  0  0  0  0  0  0
   17.2002   -3.9176   17.6360 C   0  0  0  0  0  0  0  0  0  0  0  0
   17.5492   -3.0617   18.7689 N   0  0  0  0  0  0  0  0  0  0  0  0
   17.3233   -1.6159   18.4983 C   0  0  0  0  0  0  0  0  0  0  0  0
   18.1758   -1.0288   17.3245 C   0  0  0  0  0  0  0  0  0  0  0  0
   19.3000   -0.7276   17.4473 O   0  0  0  0  0  0  0  0  0  0  0  0
   17.2125   -0.8609   16.1106 N   0  0  0  0  0  0  0  0  0  0  0  0
   17.4645   -0.3763   14.7737 C   0  0  0  0  0  0  0  0  0  0  0  0
   17.8434   -1.5474   13.8914 C   0  0  0  0  0  0  0  0  0  0  0  0
   16.2043    0.2729   14.2470 C   0  0  0  0  0  0  0  0  0  0  0  0
   16.1190    1.7829   14.1744 C   0  0  0  0  0  0  0  0  0  0  0  0
   16.1343    0.9738   12.9149 C   0  0  0  0  0  0  0  0  0  0  0  0
   16.8711   -3.4916   19.9993 C   0  0  0  0  0  0  0  0  0  0  0  0
   15.3460   -3.4372   19.8974 C   0  0  0  0  0  0  0  0  0  0  0  0
   14.8619    0.5541   16.5108 H   0  0  0  0  0  0  0  0  0  0  0  0
   13.6270    1.7675   16.7860 H   0  0  0  0  0  0  0  0  0  0  0  0
   13.6066    0.8802   15.2647 H   0  0  0  0  0  0  0  0  0  0  0  0
   11.9263    0.1660   16.8685 H   0  0  0  0  0  0  0  0  0  0  0  0
   13.2132   -0.3029   18.0172 H   0  0  0  0  0  0  0  0  0  0  0  0
   11.9913   -2.1454   16.9031 H   0  0  0  0  0  0  0  0  0  0  0  0
   13.3355   -1.6901   14.2525 H   0  0  0  0  0  0  0  0  0  0  0  0
   11.9127   -0.7172   14.6198 H   0  0  0  0  0  0  0  0  0  0  0  0
   10.5134   -2.6048   14.9014 H   0  0  0  0  0  0  0  0  0  0  0  0
   11.8685   -3.7151   15.0816 H   0  0  0  0  0  0  0  0  0  0  0  0
   11.5254   -3.0056   13.4964 H   0  0  0  0  0  0  0  0  0  0  0  0
   12.9636   -3.1378   18.2982 H   0  0  0  0  0  0  0  0  0  0  0  0
   14.1904   -4.9829   18.9991 H   0  0  0  0  0  0  0  0  0  0  0  0
   16.2308   -5.7008   18.2616 H   0  0  0  0  0  0  0  0  0  0  0  0
   15.5580   -4.9964   16.7924 H   0  0  0  0  0  0  0  0  0  0  0  0
   18.0343   -4.6186   17.4970 H   0  0  0  0  0  0  0  0  0  0  0  0
   17.1661   -3.3737   16.6901 H   0  0  0  0  0  0  0  0  0  0  0  0
   16.2645   -1.3901   18.3420 H   0  0  0  0  0  0  0  0  0  0  0  0
   17.6235   -1.0373   19.3824 H   0  0  0  0  0  0  0  0  0  0  0  0
   16.2781   -1.1588   16.3747 H   0  0  0  0  0  0  0  0  0  0  0  0
   18.3000    0.3302   14.8234 H   0  0  0  0  0  0  0  0  0  0  0  0
   17.0342   -2.2845   13.8273 H   0  0  0  0  0  0  0  0  0  0  0  0
   18.0737   -1.2203   12.8722 H   0  0  0  0  0  0  0  0  0  0  0  0
   18.7263   -2.0645   14.2839 H   0  0  0  0  0  0  0  0  0  0  0  0
   15.3310   -0.3357   14.4378 H   0  0  0  0  0  0  0  0  0  0  0  0
   17.0034    2.3626   14.4162 H   0  0  0  0  0  0  0  0  0  0  0  0
   15.1939    2.2805   14.4339 H   0  0  0  0  0  0  0  0  0  0  0  0
   17.0258    1.0130   12.2995 H   0  0  0  0  0  0  0  0  0  0  0  0
   15.2120    0.8930   12.3502 H   0  0  0  0  0  0  0  0  0  0  0  0
   17.1911   -4.5120   20.2484 H   0  0  0  0  0  0  0  0  0  0  0  0
   17.2028   -2.8739   20.8432 H   0  0  0  0  0  0  0  0  0  0  0  0
   14.9221   -3.9104   20.7926 H   0  0  0  0  0  0  0  0  0  0  0  0
   15.0016   -2.3960   19.9288 H   0  0  0  0  0  0  0  0  0  0  0  0
  1  2  1  0
  2  3  1  0
  3  4  1  0
  4  5  1  0
  3  6  1  0
  6  7  2  0
  6  8  1  0
  8  9  1  0
  9 10  1  0
 10 11  1  0
 11 12  1  0
 12 13  1  0
 13 14  1  0
 14 15  2  0
 14 16  1  0
 16 17  1  0
 17 18  1  0
 17 19  1  0
 19 20  1  0
 20 21  1  0
 12 22  1  0
 22 23  1  0
 23  9  1  0
 21 19  1  0
  1 24  1  0
  1 25  1  0
  1 26  1  0
  2 27  1  0
  2 28  1  0
  3 29  1  0
  4 30  1  0
  4 31  1  0
  5 32  1  0
  5 33  1  0
  5 34  1  0
  8 35  1  0
  9 36  1  0
 10 37  1  0
 10 38  1  0
 11 39  1  0
 11 40  1  0
 13 41  1  0
 13 42  1  0
 16 43  1  0
 17 44  1  0
 18 45  1  0
 18 46  1  0
 18 47  1  0
 19 48  1  0
 20 49  1  0
 20 50  1  0
 21 51  1  0
 21 52  1  0
 22 53  1  0
 22 54  1  0
 23 55  1  0
 23 56  1  0
M  END
>  <Energy>  (1432) 
69.125815826120302

>  <compound_id>  (1432) 
87642

>  <target_id>  (1432) 
1

>  <reference_id>  (1432) 
27

>  <inspiration_ids>  (1432) 
[97, 27]

>  <energy_score>  (1432) 
-13.83446298144031

>  <distance_score>  (1432) 
1.8596704336279788

>  <path>  (1432) 
/opt/xchem-fragalysis-2/maxwin/BulkDock/SCRATCH/511017/C87642-P27/C87642-P27.minimised.mol

>  <scratch_subdir>  (1432) 
/opt/xchem-fragalysis-2/maxwin/BulkDock/SCRATCH/511017/C87642-P27

>  <fragmenstein_runtime>  (1432) 
8.160694360733032

>  <fragmenstein_outcome>  (1432) 
too moved

>  <fragmenstein_mode>  (1432) 
expansion

>  <fragmenstein_error>  (1432) 


$$$$
C87634-P97
     RDKit          3D

 53 54  0  0  0  0  0  0  0  0999 V2000
   12.8498    1.3470   16.1923 C   0  0  0  0  0  0  0  0  0  0  0  0
   13.5200    0.0627   16.6612 C   0  0  0  0  0  0  0  0  0  0  0  0
   12.7905   -1.2365   16.2723 C   0  0  0  0  0  0  0  0  0  0  0  0
   12.7497   -1.4215   14.7478 C   0  0  0  0  0  0  0  0  0  0  0  0
   11.7196   -2.4570   14.3285 C   0  0  0  0  0  0  0  0  0  0  0  0
   13.3177   -2.5756   16.8907 C   0  0  0  0  0  0  0  0  0  0  0  0
   12.6348   -3.5169   16.9283 O   0  0  0  0  0  0  0  0  0  0  0  0
   14.7935   -2.4004   17.2780 N   0  0  0  0  0  0  0  0  0  0  0  0
   15.7541   -3.3527   17.6974 C   0  0  0  0  0  0  0  0  0  0  0  0
   15.4560   -4.4828   18.6413 C   0  0  0  0  0  0  0  0  0  0  0  0
   16.8837   -5.0130   18.9218 C   0  0  0  0  0  0  0  0  0  0  0  0
   17.8370   -3.9349   18.5226 N   0  0  0  0  0  0  0  0  0  0  0  0
   18.5573   -4.2671   17.2464 C   0  0  0  0  0  0  0  0  0  0  0  0
   19.0442   -2.9917   16.4631 C   0  0  0  0  0  0  0  0  0  0  0  0
   19.9622   -2.3540   16.8127 O   0  0  0  0  0  0  0  0  0  0  0  0
   18.0315   -2.7539   15.2925 N   0  0  0  0  0  0  0  0  0  0  0  0
   17.8923   -1.6329   14.3805 C   0  0  0  0  0  0  0  0  0  0  0  0
   17.5717   -2.1329   12.9880 C   0  0  0  0  0  0  0  0  0  0  0  0
   16.7587   -0.7524   14.8411 C   0  0  0  0  0  0  0  0  0  0  0  0
   16.3502    0.4845   14.0731 C   0  0  0  0  0  0  0  0  0  0  0  0
   17.0536    0.6168   15.3981 C   0  0  0  0  0  0  0  0  0  0  0  0
   16.9661   -2.7583   18.3780 C   0  0  0  0  0  0  0  0  0  0  0  0
   13.2712    2.2056   16.7252 H   0  0  0  0  0  0  0  0  0  0  0  0
   11.7692    1.3407   16.3501 H   0  0  0  0  0  0  0  0  0  0  0  0
   13.0252    1.5141   15.1248 H   0  0  0  0  0  0  0  0  0  0  0  0
   14.5117    0.0842   16.2221 H   0  0  0  0  0  0  0  0  0  0  0  0
   13.6653    0.0999   17.7438 H   0  0  0  0  0  0  0  0  0  0  0  0
   11.7583   -1.1330   16.6112 H   0  0  0  0  0  0  0  0  0  0  0  0
   12.4904   -0.4826   14.2484 H   0  0  0  0  0  0  0  0  0  0  0  0
   13.7329   -1.7241   14.3705 H   0  0  0  0  0  0  0  0  0  0  0  0
   10.7282   -2.2005   14.7111 H   0  0  0  0  0  0  0  0  0  0  0  0
   11.9631   -3.4580   14.6778 H   0  0  0  0  0  0  0  0  0  0  0  0
   11.6924   -2.5120   13.2403 H   0  0  0  0  0  0  0  0  0  0  0  0
   15.0938   -1.4711   17.0427 H   0  0  0  0  0  0  0  0  0  0  0  0
   16.0117   -3.8246   16.7453 H   0  0  0  0  0  0  0  0  0  0  0  0
   14.8096   -5.2335   18.1956 H   0  0  0  0  0  0  0  0  0  0  0  0
   14.9810   -4.1224   19.5615 H   0  0  0  0  0  0  0  0  0  0  0  0
   16.9947   -5.2213   19.9917 H   0  0  0  0  0  0  0  0  0  0  0  0
   17.0692   -5.9518   18.3874 H   0  0  0  0  0  0  0  0  0  0  0  0
   17.9548   -4.8960   16.5811 H   0  0  0  0  0  0  0  0  0  0  0  0
   19.4497   -4.8535   17.4951 H   0  0  0  0  0  0  0  0  0  0  0  0
   17.3089   -3.4596   15.3217 H   0  0  0  0  0  0  0  0  0  0  0  0
   18.8424   -1.0881   14.3796 H   0  0  0  0  0  0  0  0  0  0  0  0
   16.5995   -2.6384   12.9552 H   0  0  0  0  0  0  0  0  0  0  0  0
   18.3262   -2.8521   12.6500 H   0  0  0  0  0  0  0  0  0  0  0  0
   17.5452   -1.3167   12.2590 H   0  0  0  0  0  0  0  0  0  0  0  0
   15.9280   -1.3402   15.1926 H   0  0  0  0  0  0  0  0  0  0  0  0
   16.9076    0.7735   13.1887 H   0  0  0  0  0  0  0  0  0  0  0  0
   15.2976    0.7367   14.0240 H   0  0  0  0  0  0  0  0  0  0  0  0
   16.4956    0.9681   16.2560 H   0  0  0  0  0  0  0  0  0  0  0  0
   18.0814    0.9683   15.3926 H   0  0  0  0  0  0  0  0  0  0  0  0
   17.4054   -1.9129   17.8427 H   0  0  0  0  0  0  0  0  0  0  0  0
   16.7091   -2.3616   19.3705 H   0  0  0  0  0  0  0  0  0  0  0  0
  1  2  1  0
  2  3  1  0
  3  4  1  0
  4  5  1  0
  3  6  1  0
  6  7  2  0
  6  8  1  0
  8  9  1  0
  9 10  1  0
 10 11  1  0
 11 12  1  0
 12 13  1  0
 13 14  1  0
 14 15  2  0
 14 16  1  0
 16 17  1  0
 17 18  1  0
 17 19  1  0
 19 20  1  0
 20 21  1  0
 12 22  1  0
 22  9  1  0
 21 19  1  0
  1 23  1  0
  1 24  1  0
  1 25  1  0
  2 26  1  0
  2 27  1  0
  3 28  1  0
  4 29  1  0
  4 30  1  0
  5 31  1  0
  5 32  1  0
  5 33  1  0
  8 34  1  0
  9 35  1  0
 10 36  1  0
 10 37  1  0
 11 38  1  0
 11 39  1  0
 13 40  1  0
 13 41  1  0
 16 42  1  0
 17 43  1  0
 18 44  1  0
 18 45  1  0
 18 46  1  0
 19 47  1  0
 20 48  1  0
 20 49  1  0
 21 50  1  0
 21 51  1  0
 22 52  1  0
 22 53  1  0
M  END
>  <Energy>  (1433) 
102.22149785074983

>  <compound_id>  (1433) 
87634

>  <target_id>  (1433) 
1

>  <reference_id>  (1433) 
97

>  <inspiration_ids>  (1433) 
[97, 27]

>  <energy_score>  (1433) 
16.223696259869115

>  <distance_score>  (1433) 
2.2920977743176345

>  <path>  (1433) 
/opt/xchem-fragalysis-2/maxwin/BulkDock/SCRATCH/511017/C87634-P97/C87634-P97.minimised.mol

>  <scratch_subdir>  (1433) 
/opt/xchem-fragalysis-2/maxwin/BulkDock/SCRATCH/511017/C87634-P97

>  <fragmenstein_runtime>  (1433) 
5.9575066566467285

>  <fragmenstein_outcome>  (1433) 
too moved

>  <fragmenstein_mode>  (1433) 
expansion

>  <fragmenstein_error>  (1433) 


$$$$
C87634-P27
     RDKit          3D

 53 54  0  0  0  0  0  0  0  0999 V2000
   11.9857    1.8727   15.9729 C   0  0  0  0  0  0  0  0  0  0  0  0
   13.1375    1.0495   16.5010 C   0  0  0  0  0  0  0  0  0  0  0  0
   12.9110   -0.4769   16.5691 C   0  0  0  0  0  0  0  0  0  0  0  0
   12.3168   -1.0336   15.2577 C   0  0  0  0  0  0  0  0  0  0  0  0
   11.9168   -2.4995   15.2752 C   0  0  0  0  0  0  0  0  0  0  0  0
   14.2789   -1.0532   16.9764 C   0  0  0  0  0  0  0  0  0  0  0  0
   15.2531   -0.4501   16.7660 O   0  0  0  0  0  0  0  0  0  0  0  0
   14.0864   -2.4737   17.5457 N   0  0  0  0  0  0  0  0  0  0  0  0
   15.0426   -3.4712   17.8813 C   0  0  0  0  0  0  0  0  0  0  0  0
   14.8229   -4.5171   18.9375 C   0  0  0  0  0  0  0  0  0  0  0  0
   16.2412   -5.1510   19.0202 C   0  0  0  0  0  0  0  0  0  0  0  0
   17.1943   -4.1561   18.4616 N   0  0  0  0  0  0  0  0  0  0  0  0
   17.7399   -4.5558   17.1165 C   0  0  0  0  0  0  0  0  0  0  0  0
   18.3285   -3.3268   16.3338 C   0  0  0  0  0  0  0  0  0  0  0  0
   19.3942   -2.8946   16.5585 O   0  0  0  0  0  0  0  0  0  0  0  0
   17.2088   -2.8130   15.3654 N   0  0  0  0  0  0  0  0  0  0  0  0
   17.1440   -1.6095   14.5531 C   0  0  0  0  0  0  0  0  0  0  0  0
   18.2970   -1.5158   13.5844 C   0  0  0  0  0  0  0  0  0  0  0  0
   15.7692   -1.4934   13.9252 C   0  0  0  0  0  0  0  0  0  0  0  0
   15.4396   -1.7305   12.4711 C   0  0  0  0  0  0  0  0  0  0  0  0
   15.4380   -0.3306   13.0145 C   0  0  0  0  0  0  0  0  0  0  0  0
   16.3786   -2.9307   18.3754 C   0  0  0  0  0  0  0  0  0  0  0  0
   11.0327    1.6099   16.4359 H   0  0  0  0  0  0  0  0  0  0  0  0
   11.8791    1.7533   14.8896 H   0  0  0  0  0  0  0  0  0  0  0  0
   12.1677    2.9363   16.1603 H   0  0  0  0  0  0  0  0  0  0  0  0
   13.9998    1.2879   15.8641 H   0  0  0  0  0  0  0  0  0  0  0  0
   13.3914    1.4107   17.5067 H   0  0  0  0  0  0  0  0  0  0  0  0
   12.2048   -0.6901   17.3582 H   0  0  0  0  0  0  0  0  0  0  0  0
   11.4030   -0.4785   15.0161 H   0  0  0  0  0  0  0  0  0  0  0  0
   13.0011   -0.8639   14.4265 H   0  0  0  0  0  0  0  0  0  0  0  0
   12.7848   -3.1483   15.3961 H   0  0  0  0  0  0  0  0  0  0  0  0
   11.4333   -2.7717   14.3318 H   0  0  0  0  0  0  0  0  0  0  0  0
   11.2153   -2.7055   16.0848 H   0  0  0  0  0  0  0  0  0  0  0  0
   13.0977   -2.6554   17.6748 H   0  0  0  0  0  0  0  0  0  0  0  0
   15.1490   -4.0008   16.9291 H   0  0  0  0  0  0  0  0  0  0  0  0
   14.0288   -5.2182   18.6892 H   0  0  0  0  0  0  0  0  0  0  0  0
   14.5530   -4.0559   19.8964 H   0  0  0  0  0  0  0  0  0  0  0  0
   16.4897   -5.3524   20.0681 H   0  0  0  0  0  0  0  0  0  0  0  0
   16.2901   -6.1055   18.4881 H   0  0  0  0  0  0  0  0  0  0  0  0
   16.9954   -5.0652   16.4947 H   0  0  0  0  0  0  0  0  0  0  0  0
   18.5586   -5.2687   17.2687 H   0  0  0  0  0  0  0  0  0  0  0  0
   16.3819   -3.3770   15.4767 H   0  0  0  0  0  0  0  0  0  0  0  0
   17.2594   -0.7817   15.2616 H   0  0  0  0  0  0  0  0  0  0  0  0
   18.3002   -2.3589   12.8846 H   0  0  0  0  0  0  0  0  0  0  0  0
   19.2564   -1.5393   14.1128 H   0  0  0  0  0  0  0  0  0  0  0  0
   18.2736   -0.5917   12.9997 H   0  0  0  0  0  0  0  0  0  0  0  0
   15.0054   -1.8075   14.6198 H   0  0  0  0  0  0  0  0  0  0  0  0
   16.2304   -2.0148   11.7884 H   0  0  0  0  0  0  0  0  0  0  0  0
   14.4839   -2.1901   12.2419 H   0  0  0  0  0  0  0  0  0  0  0  0
   16.2291    0.3408   12.7018 H   0  0  0  0  0  0  0  0  0  0  0  0
   14.4865    0.1708   13.1426 H   0  0  0  0  0  0  0  0  0  0  0  0
   16.8134   -2.1368   17.7691 H   0  0  0  0  0  0  0  0  0  0  0  0
   16.2765   -2.4847   19.3757 H   0  0  0  0  0  0  0  0  0  0  0  0
  1  2  1  0
  2  3  1  0
  3  4  1  0
  4  5  1  0
  3  6  1  0
  6  7  2  0
  6  8  1  0
  8  9  1  0
  9 10  1  0
 10 11  1  0
 11 12  1  0
 12 13  1  0
 13 14  1  0
 14 15  2  0
 14 16  1  0
 16 17  1  0
 17 18  1  0
 17 19  1  0
 19 20  1  0
 20 21  1  0
 12 22  1  0
 22  9  1  0
 21 19  1  0
  1 23  1  0
  1 24  1  0
  1 25  1  0
  2 26  1  0
  2 27  1  0
  3 28  1  0
  4 29  1  0
  4 30  1  0
  5 31  1  0
  5 32  1  0
  5 33  1  0
  8 34  1  0
  9 35  1  0
 10 36  1  0
 10 37  1  0
 11 38  1  0
 11 39  1  0
 13 40  1  0
 13 41  1  0
 16 42  1  0
 17 43  1  0
 18 44  1  0
 18 45  1  0
 18 46  1  0
 19 47  1  0
 20 48  1  0
 20 49  1  0
 21 50  1  0
 21 51  1  0
 22 52  1  0
 22 53  1  0
M  END
>  <Energy>  (1434) 
102.96459797396318

>  <compound_id>  (1434) 
87634

>  <target_id>  (1434) 
1

>  <reference_id>  (1434) 
27

>  <inspiration_ids>  (1434) 
[97, 27]

>  <energy_score>  (1434) 
16.9667963830847

>  <distance_score>  (1434) 
2.3603310088791782

>  <path>  (1434) 
/opt/xchem-fragalysis-2/maxwin/BulkDock/SCRATCH/511017/C87634-P27/C87634-P27.minimised.mol

>  <scratch_subdir>  (1434) 
/opt/xchem-fragalysis-2/maxwin/BulkDock/SCRATCH/511017/C87634-P27

>  <fragmenstein_runtime>  (1434) 
6.647754669189453

>  <fragmenstein_outcome>  (1434) 
too moved

>  <fragmenstein_mode>  (1434) 
expansion

>  <fragmenstein_error>  (1434) 


$$$$
C87642-P97
     RDKit          3D

 56 57  0  0  0  0  0  0  0  0999 V2000
   13.2683    0.8004   16.4071 C   0  0  0  0  0  0  0  0  0  0  0  0
   13.7458   -0.5923   16.8236 C   0  0  0  0  0  0  0  0  0  0  0  0
   12.8583   -1.7459   16.3286 C   0  0  0  0  0  0  0  0  0  0  0  0
   12.8110   -1.8351   14.8082 C   0  0  0  0  0  0  0  0  0  0  0  0
   11.6253   -2.6373   14.3157 C   0  0  0  0  0  0  0  0  0  0  0  0
   13.0499   -3.1691   16.9607 C   0  0  0  0  0  0  0  0  0  0  0  0
   12.1730   -3.9329   16.8927 O   0  0  0  0  0  0  0  0  0  0  0  0
   14.4056   -3.2693   17.6809 N   0  0  0  0  0  0  0  0  0  0  0  0
   15.0119   -4.3728   18.3945 C   0  0  0  0  0  0  0  0  0  0  0  0
   16.1700   -4.9819   17.6056 C   0  0  0  0  0  0  0  0  0  0  0  0
   17.5563   -4.5608   18.1025 C   0  0  0  0  0  0  0  0  0  0  0  0
   17.6532   -3.2692   18.7644 N   0  0  0  0  0  0  0  0  0  0  0  0
   18.2069   -2.1516   17.9732 C   0  0  0  0  0  0  0  0  0  0  0  0
   17.4271   -1.7750   16.6750 C   0  0  0  0  0  0  0  0  0  0  0  0
   16.6175   -2.4639   16.1957 O   0  0  0  0  0  0  0  0  0  0  0  0
   18.0172   -0.4237   16.1838 N   0  0  0  0  0  0  0  0  0  0  0  0
   17.7962    0.3085   14.9476 C   0  0  0  0  0  0  0  0  0  0  0  0
   18.3465   -0.5173   13.7996 C   0  0  0  0  0  0  0  0  0  0  0  0
   16.3420    0.6719   14.7756 C   0  0  0  0  0  0  0  0  0  0  0  0
   15.5204    0.2326   13.5759 C   0  0  0  0  0  0  0  0  0  0  0  0
   15.9028    1.6672   13.7208 C   0  0  0  0  0  0  0  0  0  0  0  0
   16.5799   -2.9206   19.6879 C   0  0  0  0  0  0  0  0  0  0  0  0
   15.4594   -3.9501   19.7863 C   0  0  0  0  0  0  0  0  0  0  0  0
   13.4903    1.0134   15.3621 H   0  0  0  0  0  0  0  0  0  0  0  0
   13.7672    1.5655   17.0103 H   0  0  0  0  0  0  0  0  0  0  0  0
   12.1907    0.9249   16.5105 H   0  0  0  0  0  0  0  0  0  0  0  0
   13.8111   -0.6102   17.9155 H   0  0  0  0  0  0  0  0  0  0  0  0
   14.7600   -0.7397   16.4587 H   0  0  0  0  0  0  0  0  0  0  0  0
   11.8478   -1.4596   16.6358 H   0  0  0  0  0  0  0  0  0  0  0  0
   13.7432   -2.2584   14.4221 H   0  0  0  0  0  0  0  0  0  0  0  0
   12.6925   -0.8392   14.3747 H   0  0  0  0  0  0  0  0  0  0  0  0
   10.6899   -2.2078   14.6845 H   0  0  0  0  0  0  0  0  0  0  0  0
   11.6522   -3.6766   14.6254 H   0  0  0  0  0  0  0  0  0  0  0  0
   11.6292   -2.6368   13.2264 H   0  0  0  0  0  0  0  0  0  0  0  0
   14.8935   -2.3920   17.6022 H   0  0  0  0  0  0  0  0  0  0  0  0
   14.2161   -5.1129   18.5039 H   0  0  0  0  0  0  0  0  0  0  0  0
   16.1310   -6.0714   17.7188 H   0  0  0  0  0  0  0  0  0  0  0  0
   16.0597   -4.7949   16.5319 H   0  0  0  0  0  0  0  0  0  0  0  0
   17.8821   -5.3099   18.8376 H   0  0  0  0  0  0  0  0  0  0  0  0
   18.2844   -4.6514   17.2865 H   0  0  0  0  0  0  0  0  0  0  0  0
   18.2877   -1.2648   18.6133 H   0  0  0  0  0  0  0  0  0  0  0  0
   19.2273   -2.4123   17.6661 H   0  0  0  0  0  0  0  0  0  0  0  0
   18.6457   -0.0532   16.8863 H   0  0  0  0  0  0  0  0  0  0  0  0
   18.3785    1.2324   15.0401 H   0  0  0  0  0  0  0  0  0  0  0  0
   19.4017   -0.7606   13.9714 H   0  0  0  0  0  0  0  0  0  0  0  0
   17.8149   -1.4686   13.6835 H   0  0  0  0  0  0  0  0  0  0  0  0
   18.2907    0.0256   12.8502 H   0  0  0  0  0  0  0  0  0  0  0  0
   15.8846    0.8564   15.7366 H   0  0  0  0  0  0  0  0  0  0  0  0
   15.9703   -0.3308   12.7672 H   0  0  0  0  0  0  0  0  0  0  0  0
   14.4786   -0.0098   13.6975 H   0  0  0  0  0  0  0  0  0  0  0  0
   15.1249    2.3765   13.9812 H   0  0  0  0  0  0  0  0  0  0  0  0
   16.6454    2.0654   13.0384 H   0  0  0  0  0  0  0  0  0  0  0  0
   17.0119   -2.7721   20.6846 H   0  0  0  0  0  0  0  0  0  0  0  0
   16.1366   -1.9550   19.4114 H   0  0  0  0  0  0  0  0  0  0  0  0
   15.8051   -4.8274   20.3476 H   0  0  0  0  0  0  0  0  0  0  0  0
   14.6197   -3.5216   20.3472 H   0  0  0  0  0  0  0  0  0  0  0  0
  1  2  1  0
  2  3  1  0
  3  4  1  0
  4  5  1  0
  3  6  1  0
  6  7  2  0
  6  8  1  0
  8  9  1  0
  9 10  1  0
 10 11  1  0
 11 12  1  0
 12 13  1  0
 13 14  1  0
 14 15  2  0
 14 16  1  0
 16 17  1  0
 17 18  1  0
 17 19  1  0
 19 20  1  0
 20 21  1  0
 12 22  1  0
 22 23  1  0
 23  9  1  0
 21 19  1  0
  1 24  1  0
  1 25  1  0
  1 26  1  0
  2 27  1  0
  2 28  1  0
  3 29  1  0
  4 30  1  0
  4 31  1  0
  5 32  1  0
  5 33  1  0
  5 34  1  0
  8 35  1  0
  9 36  1  0
 10 37  1  0
 10 38  1  0
 11 39  1  0
 11 40  1  0
 13 41  1  0
 13 42  1  0
 16 43  1  0
 17 44  1  0
 18 45  1  0
 18 46  1  0
 18 47  1  0
 19 48  1  0
 20 49  1  0
 20 50  1  0
 21 51  1  0
 21 52  1  0
 22 53  1  0
 22 54  1  0
 23 55  1  0
 23 56  1  0
M  END
>  <Energy>  (1435) 
80.0264108995474

>  <compound_id>  (1435) 
87642

>  <target_id>  (1435) 
1

>  <reference_id>  (1435) 
97

>  <inspiration_ids>  (1435) 
[97, 27]

>  <energy_score>  (1435) 
-2.9338679080131556

>  <distance_score>  (1435) 
2.2962963899029822

>  <path>  (1435) 
/opt/xchem-fragalysis-2/maxwin/BulkDock/SCRATCH/511017/C87642-P97/C87642-P97.minimised.mol

>  <scratch_subdir>  (1435) 
/opt/xchem-fragalysis-2/maxwin/BulkDock/SCRATCH/511017/C87642-P97

>  <fragmenstein_runtime>  (1435) 
9.291956186294556

>  <fragmenstein_outcome>  (1435) 
too moved

>  <fragmenstein_mode>  (1435) 
expansion

>  <fragmenstein_error>  (1435) 


$$$$
C87642-P27
     RDKit          3D

 56 57  0  0  0  0  0  0  0  0999 V2000
   13.8137    0.7878   16.3321 C   0  0  0  0  0  0  0  0  0  0  0  0
   12.9281   -0.2492   16.9649 C   0  0  0  0  0  0  0  0  0  0  0  0
   12.8159   -1.6567   16.3777 C   0  0  0  0  0  0  0  0  0  0  0  0
   12.4461   -1.6362   14.8890 C   0  0  0  0  0  0  0  0  0  0  0  0
   11.5361   -2.8105   14.5712 C   0  0  0  0  0  0  0  0  0  0  0  0
   14.0918   -2.4618   16.6398 C   0  0  0  0  0  0  0  0  0  0  0  0
   15.0296   -2.3349   15.9598 O   0  0  0  0  0  0  0  0  0  0  0  0
   13.8804   -3.3289   17.9051 N   0  0  0  0  0  0  0  0  0  0  0  0
   14.8174   -4.1512   18.6534 C   0  0  0  0  0  0  0  0  0  0  0  0
   15.9318   -4.7535   17.7921 C   0  0  0  0  0  0  0  0  0  0  0  0
   17.2002   -3.9176   17.6360 C   0  0  0  0  0  0  0  0  0  0  0  0
   17.5492   -3.0617   18.7689 N   0  0  0  0  0  0  0  0  0  0  0  0
   17.3233   -1.6159   18.4983 C   0  0  0  0  0  0  0  0  0  0  0  0
   18.1758   -1.0288   17.3245 C   0  0  0  0  0  0  0  0  0  0  0  0
   19.3000   -0.7276   17.4473 O   0  0  0  0  0  0  0  0  0  0  0  0
   17.2125   -0.8609   16.1106 N   0  0  0  0  0  0  0  0  0  0  0  0
   17.4645   -0.3763   14.7737 C   0  0  0  0  0  0  0  0  0  0  0  0
   17.8434   -1.5474   13.8914 C   0  0  0  0  0  0  0  0  0  0  0  0
   16.2043    0.2729   14.2470 C   0  0  0  0  0  0  0  0  0  0  0  0
   16.1190    1.7829   14.1744 C   0  0  0  0  0  0  0  0  0  0  0  0
   16.1343    0.9738   12.9149 C   0  0  0  0  0  0  0  0  0  0  0  0
   16.8711   -3.4916   19.9993 C   0  0  0  0  0  0  0  0  0  0  0  0
   15.3460   -3.4372   19.8974 C   0  0  0  0  0  0  0  0  0  0  0  0
   14.8619    0.5541   16.5108 H   0  0  0  0  0  0  0  0  0  0  0  0
   13.6270    1.7675   16.7860 H   0  0  0  0  0  0  0  0  0  0  0  0
   13.6066    0.8802   15.2647 H   0  0  0  0  0  0  0  0  0  0  0  0
   11.9263    0.1660   16.8685 H   0  0  0  0  0  0  0  0  0  0  0  0
   13.2132   -0.3029   18.0172 H   0  0  0  0  0  0  0  0  0  0  0  0
   11.9913   -2.1454   16.9031 H   0  0  0  0  0  0  0  0  0  0  0  0
   13.3355   -1.6901   14.2525 H   0  0  0  0  0  0  0  0  0  0  0  0
   11.9127   -0.7172   14.6198 H   0  0  0  0  0  0  0  0  0  0  0  0
   10.5134   -2.6048   14.9014 H   0  0  0  0  0  0  0  0  0  0  0  0
   11.8685   -3.7151   15.0816 H   0  0  0  0  0  0  0  0  0  0  0  0
   11.5254   -3.0056   13.4964 H   0  0  0  0  0  0  0  0  0  0  0  0
   12.9636   -3.1378   18.2982 H   0  0  0  0  0  0  0  0  0  0  0  0
   14.1904   -4.9829   18.9991 H   0  0  0  0  0  0  0  0  0  0  0  0
   16.2308   -5.7008   18.2616 H   0  0  0  0  0  0  0  0  0  0  0  0
   15.5580   -4.9964   16.7924 H   0  0  0  0  0  0  0  0  0  0  0  0
   18.0343   -4.6186   17.4970 H   0  0  0  0  0  0  0  0  0  0  0  0
   17.1661   -3.3737   16.6901 H   0  0  0  0  0  0  0  0  0  0  0  0
   16.2645   -1.3901   18.3420 H   0  0  0  0  0  0  0  0  0  0  0  0
   17.6235   -1.0373   19.3824 H   0  0  0  0  0  0  0  0  0  0  0  0
   16.2781   -1.1588   16.3747 H   0  0  0  0  0  0  0  0  0  0  0  0
   18.3000    0.3302   14.8234 H   0  0  0  0  0  0  0  0  0  0  0  0
   17.0342   -2.2845   13.8273 H   0  0  0  0  0  0  0  0  0  0  0  0
   18.0737   -1.2203   12.8722 H   0  0  0  0  0  0  0  0  0  0  0  0
   18.7263   -2.0645   14.2839 H   0  0  0  0  0  0  0  0  0  0  0  0
   15.3310   -0.3357   14.4378 H   0  0  0  0  0  0  0  0  0  0  0  0
   17.0034    2.3626   14.4162 H   0  0  0  0  0  0  0  0  0  0  0  0
   15.1939    2.2805   14.4339 H   0  0  0  0  0  0  0  0  0  0  0  0
   17.0258    1.0130   12.2995 H   0  0  0  0  0  0  0  0  0  0  0  0
   15.2120    0.8930   12.3502 H   0  0  0  0  0  0  0  0  0  0  0  0
   17.1911   -4.5120   20.2484 H   0  0  0  0  0  0  0  0  0  0  0  0
   17.2028   -2.8739   20.8432 H   0  0  0  0  0  0  0  0  0  0  0  0
   14.9221   -3.9104   20.7926 H   0  0  0  0  0  0  0  0  0  0  0  0
   15.0016   -2.3960   19.9288 H   0  0  0  0  0  0  0  0  0  0  0  0
  1  2  1  0
  2  3  1  0
  3  4  1  0
  4  5  1  0
  3  6  1  0
  6  7  2  0
  6  8  1  0
  8  9  1  0
  9 10  1  0
 10 11  1  0
 11 12  1  0
 12 13  1  0
 13 14  1  0
 14 15  2  0
 14 16  1  0
 16 17  1  0
 17 18  1  0
 17 19  1  0
 19 20  1  0
 20 21  1  0
 12 22  1  0
 22 23  1  0
 23  9  1  0
 21 19  1  0
  1 24  1  0
  1 25  1  0
  1 26  1  0
  2 27  1  0
  2 28  1  0
  3 29  1  0
  4 30  1  0
  4 31  1  0
  5 32  1  0
  5 33  1  0
  5 34  1  0
  8 35  1  0
  9 36  1  0
 10 37  1  0
 10 38  1  0
 11 39  1  0
 11 40  1  0
 13 41  1  0
 13 42  1  0
 16 43  1  0
 17 44  1  0
 18 45  1  0
 18 46  1  0
 18 47  1  0
 19 48  1  0
 20 49  1  0
 20 50  1  0
 21 51  1  0
 21 52  1  0
 22 53  1  0
 22 54  1  0
 23 55  1  0
 23 56  1  0
M  END
>  <Energy>  (1436) 
69.125815826120302

>  <compound_id>  (1436) 
87642

>  <target_id>  (1436) 
1

>  <reference_id>  (1436) 
27

>  <inspiration_ids>  (1436) 
[97, 27]

>  <energy_score>  (1436) 
-13.83446298144031

>  <distance_score>  (1436) 
1.8596704336279788

>  <path>  (1436) 
/opt/xchem-fragalysis-2/maxwin/BulkDock/SCRATCH/511017/C87642-P27/C87642-P27.minimised.mol

>  <scratch_subdir>  (1436) 
/opt/xchem-fragalysis-2/maxwin/BulkDock/SCRATCH/511017/C87642-P27

>  <fragmenstein_runtime>  (1436) 
8.947319030761719

>  <fragmenstein_outcome>  (1436) 
too moved

>  <fragmenstein_mode>  (1436) 
expansion

>  <fragmenstein_error>  (1436) 


$$$$
C87623-P97
     RDKit          3D

 49 50  0  0  0  0  0  0  0  0999 V2000
    9.1415   -0.4549   15.1914 C   0  0  0  0  0  0  0  0  0  0  0  0
   10.0200    0.5929   15.8342 C   0  0  0  0  0  0  0  0  0  0  0  0
   10.6697    1.5968   14.8816 C   0  0  0  0  0  0  0  0  0  0  0  0
   11.5741    2.6053   15.6267 C   0  0  0  0  0  0  0  0  0  0  0  0
   12.8997    2.1487   16.1968 C   0  0  0  0  0  0  0  0  0  0  0  0
   11.3495    0.9879   13.6482 C   0  0  0  0  0  0  0  0  0  0  0  0
   11.1318    1.3704   12.5650 O   0  0  0  0  0  0  0  0  0  0  0  0
   12.3677   -0.0670   14.1563 N   0  0  0  0  0  0  0  0  0  0  0  0
   13.3961   -0.8011   13.4460 C   0  0  0  0  0  0  0  0  0  0  0  0
   14.2420   -1.6968   14.3721 C   0  0  0  0  0  0  0  0  0  0  0  0
   15.1026   -0.4282   14.6747 C   0  0  0  0  0  0  0  0  0  0  0  0
   16.6091   -0.5107   14.8366 C   0  0  0  0  0  0  0  0  0  0  0  0
   17.0191   -0.8707   16.2611 C   0  0  0  0  0  0  0  0  0  0  0  0
   16.4660   -2.1336   16.6626 N   0  0  0  0  0  0  0  0  0  0  0  0
   15.1049   -2.4716   17.3321 C   0  0  0  0  0  0  0  0  0  0  0  0
   14.2606   -1.7672   17.7286 O   0  0  0  0  0  0  0  0  0  0  0  0
   14.9483   -3.9766   17.3146 C   0  0  0  0  0  0  0  0  0  0  0  0
   15.6937   -4.5680   18.3867 N   0  0  0  0  0  0  0  0  0  0  0  0
   15.0995   -5.0347   19.4980 N   0  0  0  0  0  0  0  0  0  0  0  0
   16.1652   -5.5457   20.1238 C   0  0  0  0  0  0  0  0  0  0  0  0
   17.3209   -5.4514   19.4058 N   0  0  0  0  0  0  0  0  0  0  0  0
   17.0045   -4.8455   18.2691 N   0  0  0  0  0  0  0  0  0  0  0  0
   14.6656    0.0502   13.2656 C   0  0  0  0  0  0  0  0  0  0  0  0
    9.7270   -1.3567   14.9917 H   0  0  0  0  0  0  0  0  0  0  0  0
    8.7022   -0.0992   14.2613 H   0  0  0  0  0  0  0  0  0  0  0  0
    8.3345   -0.7469   15.8676 H   0  0  0  0  0  0  0  0  0  0  0  0
    9.4231    1.1485   16.5648 H   0  0  0  0  0  0  0  0  0  0  0  0
   10.7856    0.0469   16.3750 H   0  0  0  0  0  0  0  0  0  0  0  0
    9.8486    2.1990   14.4743 H   0  0  0  0  0  0  0  0  0  0  0  0
   11.7835    3.4400   14.9441 H   0  0  0  0  0  0  0  0  0  0  0  0
   10.9866    3.0379   16.4476 H   0  0  0  0  0  0  0  0  0  0  0  0
   13.6377    2.0531   15.3982 H   0  0  0  0  0  0  0  0  0  0  0  0
   13.2862    2.9041   16.8896 H   0  0  0  0  0  0  0  0  0  0  0  0
   12.8251    1.2077   16.7433 H   0  0  0  0  0  0  0  0  0  0  0  0
   12.2346   -0.2149   15.1456 H   0  0  0  0  0  0  0  0  0  0  0  0
   13.0336   -1.3203   12.5654 H   0  0  0  0  0  0  0  0  0  0  0  0
   14.8072   -2.4666   13.8379 H   0  0  0  0  0  0  0  0  0  0  0  0
   13.6887   -2.1549   15.1914 H   0  0  0  0  0  0  0  0  0  0  0  0
   14.6772    0.1748   15.4836 H   0  0  0  0  0  0  0  0  0  0  0  0
   17.0581    0.4589   14.5892 H   0  0  0  0  0  0  0  0  0  0  0  0
   17.0261   -1.2436   14.1347 H   0  0  0  0  0  0  0  0  0  0  0  0
   16.6548   -0.1126   16.9621 H   0  0  0  0  0  0  0  0  0  0  0  0
   18.1077   -0.9383   16.3439 H   0  0  0  0  0  0  0  0  0  0  0  0
   16.9215   -2.9933   16.3652 H   0  0  0  0  0  0  0  0  0  0  0  0
   15.2861   -4.4021   16.3646 H   0  0  0  0  0  0  0  0  0  0  0  0
   13.8895   -4.2319   17.4336 H   0  0  0  0  0  0  0  0  0  0  0  0
   16.0994   -6.0000   21.1023 H   0  0  0  0  0  0  0  0  0  0  0  0
   14.5234    1.1294   13.1555 H   0  0  0  0  0  0  0  0  0  0  0  0
   15.3058   -0.2947   12.4435 H   0  0  0  0  0  0  0  0  0  0  0  0
  1  2  1  0
  2  3  1  0
  3  4  1  0
  4  5  1  0
  3  6  1  0
  6  7  2  0
  6  8  1  0
  8  9  1  0
  9 10  1  0
 10 11  1  0
 11 12  1  0
 12 13  1  0
 13 14  1  0
 14 15  1  0
 15 16  2  0
 15 17  1  0
 17 18  1  0
 18 19  1  0
 19 20  2  0
 20 21  1  0
 21 22  2  0
 11 23  1  0
 23  9  1  0
 22 18  1  0
  1 24  1  0
  1 25  1  0
  1 26  1  0
  2 27  1  0
  2 28  1  0
  3 29  1  0
  4 30  1  0
  4 31  1  0
  5 32  1  0
  5 33  1  0
  5 34  1  0
  8 35  1  0
  9 36  1  0
 10 37  1  0
 10 38  1  0
 11 39  1  0
 12 40  1  0
 12 41  1  0
 13 42  1  0
 13 43  1  0
 14 44  1  0
 17 45  1  0
 17 46  1  0
 20 47  1  0
 23 48  1  0
 23 49  1  0
M  END
>  <Energy>  (1437) 
38.346263701981044

>  <compound_id>  (1437) 
87623

>  <target_id>  (1437) 
1

>  <reference_id>  (1437) 
97

>  <inspiration_ids>  (1437) 
[97, 27]

>  <energy_score>  (1437) 
-9.515775178753586

>  <distance_score>  (1437) 
2.9281270640881174

>  <path>  (1437) 
/opt/xchem-fragalysis-2/maxwin/BulkDock/SCRATCH/511017/C87623-P97/C87623-P97.minimised.mol

>  <scratch_subdir>  (1437) 
/opt/xchem-fragalysis-2/maxwin/BulkDock/SCRATCH/511017/C87623-P97

>  <fragmenstein_runtime>  (1437) 
170.1325352191925

>  <fragmenstein_outcome>  (1437) 
too moved

>  <fragmenstein_mode>  (1437) 
expansion

>  <fragmenstein_error>  (1437) 


$$$$
C87623-P27
     RDKit          3D

 49 50  0  0  0  0  0  0  0  0999 V2000
    9.9874    4.2847   16.3067 C   0  0  0  0  0  0  0  0  0  0  0  0
   10.2751    2.8330   15.9494 C   0  0  0  0  0  0  0  0  0  0  0  0
   11.3860    2.6974   14.9039 C   0  0  0  0  0  0  0  0  0  0  0  0
   12.8385    2.9328   15.3895 C   0  0  0  0  0  0  0  0  0  0  0  0
   13.1653    2.7253   16.8626 C   0  0  0  0  0  0  0  0  0  0  0  0
   11.2341    1.3840   14.1109 C   0  0  0  0  0  0  0  0  0  0  0  0
   10.8597    1.3651   13.0026 O   0  0  0  0  0  0  0  0  0  0  0  0
   11.7161    0.2275   15.0310 N   0  0  0  0  0  0  0  0  0  0  0  0
   11.9280   -1.1873   14.7425 C   0  0  0  0  0  0  0  0  0  0  0  0
   12.6667   -1.9377   15.8701 C   0  0  0  0  0  0  0  0  0  0  0  0
   14.0112   -1.6577   15.1348 C   0  0  0  0  0  0  0  0  0  0  0  0
   14.8331   -0.4401   15.5809 C   0  0  0  0  0  0  0  0  0  0  0  0
   16.3207   -0.6391   15.3122 C   0  0  0  0  0  0  0  0  0  0  0  0
   16.9047   -1.5773   16.2393 N   0  0  0  0  0  0  0  0  0  0  0  0
   17.5231   -2.9829   15.9973 C   0  0  0  0  0  0  0  0  0  0  0  0
   17.7228   -3.5604   15.0017 O   0  0  0  0  0  0  0  0  0  0  0  0
   17.9599   -3.5299   17.3389 C   0  0  0  0  0  0  0  0  0  0  0  0
   16.8622   -4.1518   18.0376 N   0  0  0  0  0  0  0  0  0  0  0  0
   15.9276   -3.4165   18.6910 N   0  0  0  0  0  0  0  0  0  0  0  0
   15.4045   -4.3648   19.4787 C   0  0  0  0  0  0  0  0  0  0  0  0
   15.9797   -5.5886   19.3251 N   0  0  0  0  0  0  0  0  0  0  0  0
   16.9218   -5.4449   18.4047 N   0  0  0  0  0  0  0  0  0  0  0  0
   13.1622   -1.4631   13.8519 C   0  0  0  0  0  0  0  0  0  0  0  0
    9.1822    4.3389   17.0460 H   0  0  0  0  0  0  0  0  0  0  0  0
    9.6671    4.8470   15.4235 H   0  0  0  0  0  0  0  0  0  0  0  0
   10.8667    4.7811   16.7259 H   0  0  0  0  0  0  0  0  0  0  0  0
   10.5190    2.2691   16.8510 H   0  0  0  0  0  0  0  0  0  0  0  0
    9.3480    2.3900   15.5686 H   0  0  0  0  0  0  0  0  0  0  0  0
   11.2048    3.4685   14.1384 H   0  0  0  0  0  0  0  0  0  0  0  0
   13.5364    2.3587   14.7721 H   0  0  0  0  0  0  0  0  0  0  0  0
   13.0775    3.9840   15.1747 H   0  0  0  0  0  0  0  0  0  0  0  0
   12.9575    1.7136   17.2127 H   0  0  0  0  0  0  0  0  0  0  0  0
   14.2321    2.9117   17.0289 H   0  0  0  0  0  0  0  0  0  0  0  0
   12.6176    3.4282   17.4949 H   0  0  0  0  0  0  0  0  0  0  0  0
   12.0464    0.6073   15.9043 H   0  0  0  0  0  0  0  0  0  0  0  0
   11.0026   -1.6720   14.4287 H   0  0  0  0  0  0  0  0  0  0  0  0
   12.4106   -3.0036   15.9190 H   0  0  0  0  0  0  0  0  0  0  0  0
   12.5773   -1.5210   16.8767 H   0  0  0  0  0  0  0  0  0  0  0  0
   14.6320   -2.5605   15.1110 H   0  0  0  0  0  0  0  0  0  0  0  0
   14.6787   -0.2590   16.6514 H   0  0  0  0  0  0  0  0  0  0  0  0
   14.5044    0.4541   15.0486 H   0  0  0  0  0  0  0  0  0  0  0  0
   16.5002   -0.9971   14.2936 H   0  0  0  0  0  0  0  0  0  0  0  0
   16.8516    0.3075   15.4526 H   0  0  0  0  0  0  0  0  0  0  0  0
   16.8016   -1.4186   17.2389 H   0  0  0  0  0  0  0  0  0  0  0  0
   18.3770   -2.7423   17.9748 H   0  0  0  0  0  0  0  0  0  0  0  0
   18.7455   -4.2769   17.1799 H   0  0  0  0  0  0  0  0  0  0  0  0
   14.5970   -4.1605   20.1686 H   0  0  0  0  0  0  0  0  0  0  0  0
   13.4713   -0.6540   13.1831 H   0  0  0  0  0  0  0  0  0  0  0  0
   13.0577   -2.3723   13.2484 H   0  0  0  0  0  0  0  0  0  0  0  0
  1  2  1  0
  2  3  1  0
  3  4  1  0
  4  5  1  0
  3  6  1  0
  6  7  2  0
  6  8  1  0
  8  9  1  0
  9 10  1  0
 10 11  1  0
 11 12  1  0
 12 13  1  0
 13 14  1  0
 14 15  1  0
 15 16  2  0
 15 17  1  0
 17 18  1  0
 18 19  1  0
 19 20  2  0
 20 21  1  0
 21 22  2  0
 11 23  1  0
 23  9  1  0
 22 18  1  0
  1 24  1  0
  1 25  1  0
  1 26  1  0
  2 27  1  0
  2 28  1  0
  3 29  1  0
  4 30  1  0
  4 31  1  0
  5 32  1  0
  5 33  1  0
  5 34  1  0
  8 35  1  0
  9 36  1  0
 10 37  1  0
 10 38  1  0
 11 39  1  0
 12 40  1  0
 12 41  1  0
 13 42  1  0
 13 43  1  0
 14 44  1  0
 17 45  1  0
 17 46  1  0
 20 47  1  0
 23 48  1  0
 23 49  1  0
M  END
>  <Energy>  (1438) 
38.163268197294165

>  <compound_id>  (1438) 
87623

>  <target_id>  (1438) 
1

>  <reference_id>  (1438) 
27

>  <inspiration_ids>  (1438) 
[97, 27]

>  <energy_score>  (1438) 
-9.698770683438802

>  <distance_score>  (1438) 
2.11720053683822

>  <path>  (1438) 
/opt/xchem-fragalysis-2/maxwin/BulkDock/SCRATCH/511017/C87623-P27/C87623-P27.minimised.mol

>  <scratch_subdir>  (1438) 
/opt/xchem-fragalysis-2/maxwin/BulkDock/SCRATCH/511017/C87623-P27

>  <fragmenstein_runtime>  (1438) 
168.00473070144653

>  <fragmenstein_outcome>  (1438) 
too moved

>  <fragmenstein_mode>  (1438) 
expansion

>  <fragmenstein_error>  (1438) 


$$$$
C87625-P97
     RDKit          3D

 51 52  0  0  0  0  0  0  0  0999 V2000
   13.3156   -4.8032   20.6159 C   0  0  0  0  0  0  0  0  0  0  0  0
   14.4266   -3.7806   20.7527 C   0  0  0  0  0  0  0  0  0  0  0  0
   15.6788   -4.0039   19.8925 C   0  0  0  0  0  0  0  0  0  0  0  0
   16.7052   -4.9777   20.5070 C   0  0  0  0  0  0  0  0  0  0  0  0
   16.2068   -6.3513   20.9257 C   0  0  0  0  0  0  0  0  0  0  0  0
   15.3580   -4.3600   18.4274 C   0  0  0  0  0  0  0  0  0  0  0  0
   15.6026   -5.4058   17.9704 O   0  0  0  0  0  0  0  0  0  0  0  0
   14.6907   -3.1117   17.7846 N   0  0  0  0  0  0  0  0  0  0  0  0
   14.2719   -2.8643   16.4073 C   0  0  0  0  0  0  0  0  0  0  0  0
   13.3422   -1.6616   16.1737 C   0  0  0  0  0  0  0  0  0  0  0  0
   14.6061   -0.7899   15.9304 C   0  0  0  0  0  0  0  0  0  0  0  0
   14.5151    0.2851   14.8554 C   0  0  0  0  0  0  0  0  0  0  0  0
   15.7641    1.1598   14.8130 C   0  0  0  0  0  0  0  0  0  0  0  0
   16.9351    0.4563   14.3651 N   0  0  0  0  0  0  0  0  0  0  0  0
   17.3109   -0.0815   12.9585 C   0  0  0  0  0  0  0  0  0  0  0  0
   16.6941   -0.1032   11.9674 O   0  0  0  0  0  0  0  0  0  0  0  0
   18.7397   -0.6193   13.0575 C   0  0  0  0  0  0  0  0  0  0  0  0
   18.8482   -1.9015   13.8320 C   0  0  0  0  0  0  0  0  0  0  0  0
   18.4237   -3.2044   13.2101 C   0  0  0  0  0  0  0  0  0  0  0  0
   19.8823   -2.9298   13.4491 C   0  0  0  0  0  0  0  0  0  0  0  0
   15.3237   -2.1133   15.5605 C   0  0  0  0  0  0  0  0  0  0  0  0
   12.4484   -4.4748   21.1942 H   0  0  0  0  0  0  0  0  0  0  0  0
   13.5991   -5.7824   21.0007 H   0  0  0  0  0  0  0  0  0  0  0  0
   13.0015   -4.9150   19.5763 H   0  0  0  0  0  0  0  0  0  0  0  0
   14.7152   -3.7011   21.8080 H   0  0  0  0  0  0  0  0  0  0  0  0
   14.0096   -2.8033   20.4886 H   0  0  0  0  0  0  0  0  0  0  0  0
   16.2115   -3.0417   19.8481 H   0  0  0  0  0  0  0  0  0  0  0  0
   17.5298   -5.1163   19.7955 H   0  0  0  0  0  0  0  0  0  0  0  0
   17.1492   -4.5005   21.3903 H   0  0  0  0  0  0  0  0  0  0  0  0
   17.0579   -6.9882   21.1900 H   0  0  0  0  0  0  0  0  0  0  0  0
   15.6551   -6.8514   20.1258 H   0  0  0  0  0  0  0  0  0  0  0  0
   15.5720   -6.2871   21.8137 H   0  0  0  0  0  0  0  0  0  0  0  0
   14.7057   -2.3424   18.4438 H   0  0  0  0  0  0  0  0  0  0  0  0
   13.8982   -3.7914   15.9683 H   0  0  0  0  0  0  0  0  0  0  0  0
   12.7191   -1.3466   17.0079 H   0  0  0  0  0  0  0  0  0  0  0  0
   12.7004   -1.7773   15.2912 H   0  0  0  0  0  0  0  0  0  0  0  0
   14.9713   -0.3668   16.8783 H   0  0  0  0  0  0  0  0  0  0  0  0
   14.3241   -0.1641   13.8735 H   0  0  0  0  0  0  0  0  0  0  0  0
   13.6587    0.9329   15.0794 H   0  0  0  0  0  0  0  0  0  0  0  0
   15.9872    1.5834   15.7973 H   0  0  0  0  0  0  0  0  0  0  0  0
   15.5996    1.9821   14.1090 H   0  0  0  0  0  0  0  0  0  0  0  0
   17.6779    0.2417   15.0193 H   0  0  0  0  0  0  0  0  0  0  0  0
   19.1114   -0.7501   12.0333 H   0  0  0  0  0  0  0  0  0  0  0  0
   19.3747    0.1470   13.5175 H   0  0  0  0  0  0  0  0  0  0  0  0
   18.6571   -1.7696   14.8904 H   0  0  0  0  0  0  0  0  0  0  0  0
   18.0588   -3.1971   12.1885 H   0  0  0  0  0  0  0  0  0  0  0  0
   17.9269   -3.9281   13.8479 H   0  0  0  0  0  0  0  0  0  0  0  0
   20.5088   -2.7502   12.5827 H   0  0  0  0  0  0  0  0  0  0  0  0
   20.3745   -3.4794   14.2439 H   0  0  0  0  0  0  0  0  0  0  0  0
   15.2881   -2.3664   14.4943 H   0  0  0  0  0  0  0  0  0  0  0  0
   16.3603   -2.1943   15.8998 H   0  0  0  0  0  0  0  0  0  0  0  0
  1  2  1  0
  2  3  1  0
  3  4  1  0
  4  5  1  0
  3  6  1  0
  6  7  2  0
  6  8  1  0
  8  9  1  0
  9 10  1  0
 10 11  1  0
 11 12  1  0
 12 13  1  0
 13 14  1  0
 14 15  1  0
 15 16  2  0
 15 17  1  0
 17 18  1  0
 18 19  1  0
 19 20  1  0
 11 21  1  0
 21  9  1  0
 20 18  1  0
  1 22  1  0
  1 23  1  0
  1 24  1  0
  2 25  1  0
  2 26  1  0
  3 27  1  0
  4 28  1  0
  4 29  1  0
  5 30  1  0
  5 31  1  0
  5 32  1  0
  8 33  1  0
  9 34  1  0
 10 35  1  0
 10 36  1  0
 11 37  1  0
 12 38  1  0
 12 39  1  0
 13 40  1  0
 13 41  1  0
 14 42  1  0
 17 43  1  0
 17 44  1  0
 18 45  1  0
 19 46  1  0
 19 47  1  0
 20 48  1  0
 20 49  1  0
 21 50  1  0
 21 51  1  0
M  END
>  <Energy>  (1439) 
48.208538551978762

>  <compound_id>  (1439) 
87625

>  <target_id>  (1439) 
1

>  <reference_id>  (1439) 
97

>  <inspiration_ids>  (1439) 
[97, 27]

>  <energy_score>  (1439) 
-9.599920705188723

>  <distance_score>  (1439) 
2.0109299228421964

>  <path>  (1439) 
/opt/xchem-fragalysis-2/maxwin/BulkDock/SCRATCH/511017/C87625-P97/C87625-P97.minimised.mol

>  <scratch_subdir>  (1439) 
/opt/xchem-fragalysis-2/maxwin/BulkDock/SCRATCH/511017/C87625-P97

>  <fragmenstein_runtime>  (1439) 
69.28054070472717

>  <fragmenstein_outcome>  (1439) 
too moved

>  <fragmenstein_mode>  (1439) 
expansion

>  <fragmenstein_error>  (1439) 


$$$$
C87625-P27
     RDKit          3D

 51 52  0  0  0  0  0  0  0  0999 V2000
   13.5785   -4.2945   22.0823 C   0  0  0  0  0  0  0  0  0  0  0  0
   13.8336   -4.2761   20.5822 C   0  0  0  0  0  0  0  0  0  0  0  0
   15.3180   -4.0964   20.2427 C   0  0  0  0  0  0  0  0  0  0  0  0
   16.2536   -5.2106   20.7515 C   0  0  0  0  0  0  0  0  0  0  0  0
   15.8279   -6.6414   20.4643 C   0  0  0  0  0  0  0  0  0  0  0  0
   15.4995   -3.8540   18.7294 C   0  0  0  0  0  0  0  0  0  0  0  0
   15.8552   -4.6784   17.9814 O   0  0  0  0  0  0  0  0  0  0  0  0
   15.2189   -2.3380   18.5019 N   0  0  0  0  0  0  0  0  0  0  0  0
   15.4121   -1.5123   17.3279 C   0  0  0  0  0  0  0  0  0  0  0  0
   15.1486   -2.1371   15.9368 C   0  0  0  0  0  0  0  0  0  0  0  0
   14.7695   -0.6740   15.5055 C   0  0  0  0  0  0  0  0  0  0  0  0
   13.7444   -0.4630   14.4142 C   0  0  0  0  0  0  0  0  0  0  0  0
   14.3850   -0.1088   13.0785 C   0  0  0  0  0  0  0  0  0  0  0  0
   15.3104   -1.0973   12.5970 N   0  0  0  0  0  0  0  0  0  0  0  0
   16.7311   -0.9371   11.9888 C   0  0  0  0  0  0  0  0  0  0  0  0
   17.3328    0.0255   11.7162 O   0  0  0  0  0  0  0  0  0  0  0  0
   17.2450   -2.3573   11.7486 C   0  0  0  0  0  0  0  0  0  0  0  0
   18.6313   -2.4085   11.1720 C   0  0  0  0  0  0  0  0  0  0  0  0
   18.8547   -2.2762    9.6879 C   0  0  0  0  0  0  0  0  0  0  0  0
   19.0759   -3.6011   10.3637 C   0  0  0  0  0  0  0  0  0  0  0  0
   14.2621   -0.5380   16.9714 C   0  0  0  0  0  0  0  0  0  0  0  0
   12.5050   -4.3068   22.2819 H   0  0  0  0  0  0  0  0  0  0  0  0
   13.9957   -3.4037   22.5628 H   0  0  0  0  0  0  0  0  0  0  0  0
   14.0151   -5.1785   22.5553 H   0  0  0  0  0  0  0  0  0  0  0  0
   13.2575   -3.4508   20.1485 H   0  0  0  0  0  0  0  0  0  0  0  0
   13.4357   -5.1880   20.1238 H   0  0  0  0  0  0  0  0  0  0  0  0
   15.6734   -3.1858   20.7471 H   0  0  0  0  0  0  0  0  0  0  0  0
   17.2563   -5.0577   20.3319 H   0  0  0  0  0  0  0  0  0  0  0  0
   16.3649   -5.1054   21.8382 H   0  0  0  0  0  0  0  0  0  0  0  0
   16.5763   -7.3366   20.8596 H   0  0  0  0  0  0  0  0  0  0  0  0
   15.7431   -6.8280   19.3924 H   0  0  0  0  0  0  0  0  0  0  0  0
   14.8752   -6.8840   20.9423 H   0  0  0  0  0  0  0  0  0  0  0  0
   14.8434   -1.9310   19.3522 H   0  0  0  0  0  0  0  0  0  0  0  0
   16.3892   -1.0128   17.3901 H   0  0  0  0  0  0  0  0  0  0  0  0
   14.3242   -2.8589   15.9015 H   0  0  0  0  0  0  0  0  0  0  0  0
   16.0213   -2.5620   15.4341 H   0  0  0  0  0  0  0  0  0  0  0  0
   15.6529   -0.0361   15.3423 H   0  0  0  0  0  0  0  0  0  0  0  0
   13.1137   -1.3535   14.3044 H   0  0  0  0  0  0  0  0  0  0  0  0
   13.0764    0.3618   14.6910 H   0  0  0  0  0  0  0  0  0  0  0  0
   14.9239    0.8423   13.1483 H   0  0  0  0  0  0  0  0  0  0  0  0
   13.6112    0.0060   12.3133 H   0  0  0  0  0  0  0  0  0  0  0  0
   15.0631   -2.0828   12.6278 H   0  0  0  0  0  0  0  0  0  0  0  0
   16.5371   -2.8662   11.0837 H   0  0  0  0  0  0  0  0  0  0  0  0
   17.2574   -2.8743   12.7144 H   0  0  0  0  0  0  0  0  0  0  0  0
   19.3589   -1.9437   11.8299 H   0  0  0  0  0  0  0  0  0  0  0  0
   19.7245   -1.7174    9.3604 H   0  0  0  0  0  0  0  0  0  0  0  0
   17.9917   -2.1662    9.0435 H   0  0  0  0  0  0  0  0  0  0  0  0
   20.0980   -3.9429   10.4840 H   0  0  0  0  0  0  0  0  0  0  0  0
   18.3682   -4.3937   10.1501 H   0  0  0  0  0  0  0  0  0  0  0  0
   14.3389    0.4629   17.4046 H   0  0  0  0  0  0  0  0  0  0  0  0
   13.2514   -0.9260   17.1473 H   0  0  0  0  0  0  0  0  0  0  0  0
  1  2  1  0
  2  3  1  0
  3  4  1  0
  4  5  1  0
  3  6  1  0
  6  7  2  0
  6  8  1  0
  8  9  1  0
  9 10  1  0
 10 11  1  0
 11 12  1  0
 12 13  1  0
 13 14  1  0
 14 15  1  0
 15 16  2  0
 15 17  1  0
 17 18  1  0
 18 19  1  0
 19 20  1  0
 11 21  1  0
 21  9  1  0
 20 18  1  0
  1 22  1  0
  1 23  1  0
  1 24  1  0
  2 25  1  0
  2 26  1  0
  3 27  1  0
  4 28  1  0
  4 29  1  0
  5 30  1  0
  5 31  1  0
  5 32  1  0
  8 33  1  0
  9 34  1  0
 10 35  1  0
 10 36  1  0
 11 37  1  0
 12 38  1  0
 12 39  1  0
 13 40  1  0
 13 41  1  0
 14 42  1  0
 17 43  1  0
 17 44  1  0
 18 45  1  0
 19 46  1  0
 19 47  1  0
 20 48  1  0
 20 49  1  0
 21 50  1  0
 21 51  1  0
M  END
>  <Energy>  (1440) 
49.244738877108553

>  <compound_id>  (1440) 
87625

>  <target_id>  (1440) 
1

>  <reference_id>  (1440) 
27

>  <inspiration_ids>  (1440) 
[97, 27]

>  <energy_score>  (1440) 
-8.563720380058363

>  <distance_score>  (1440) 
2.202063631426249

>  <path>  (1440) 
/opt/xchem-fragalysis-2/maxwin/BulkDock/SCRATCH/511017/C87625-P27/C87625-P27.minimised.mol

>  <scratch_subdir>  (1440) 
/opt/xchem-fragalysis-2/maxwin/BulkDock/SCRATCH/511017/C87625-P27

>  <fragmenstein_runtime>  (1440) 
71.17485475540161

>  <fragmenstein_outcome>  (1440) 
too moved

>  <fragmenstein_mode>  (1440) 
expansion

>  <fragmenstein_error>  (1440) 


$$$$
C87626-P97
     RDKit          3D

 50 51  0  0  0  0  0  0  0  0999 V2000
    9.9846    4.9001   13.3009 C   0  0  0  0  0  0  0  0  0  0  0  0
   11.1778    3.9570   13.2539 C   0  0  0  0  0  0  0  0  0  0  0  0
   10.8822    2.5460   13.7990 C   0  0  0  0  0  0  0  0  0  0  0  0
   10.3710    2.5244   15.2554 C   0  0  0  0  0  0  0  0  0  0  0  0
   11.3212    3.1488   16.2702 C   0  0  0  0  0  0  0  0  0  0  0  0
   12.1278    1.6541   13.6634 C   0  0  0  0  0  0  0  0  0  0  0  0
   13.2103    2.0887   13.5805 O   0  0  0  0  0  0  0  0  0  0  0  0
   11.6374    0.1761   13.7683 N   0  0  0  0  0  0  0  0  0  0  0  0
   12.3950   -1.0690   13.8891 C   0  0  0  0  0  0  0  0  0  0  0  0
   12.4511   -1.5602   15.3528 C   0  0  0  0  0  0  0  0  0  0  0  0
   13.7766   -0.7465   15.4835 C   0  0  0  0  0  0  0  0  0  0  0  0
   14.7911   -1.4091   16.3729 C   0  0  0  0  0  0  0  0  0  0  0  0
   16.1165   -0.6787   16.4590 C   0  0  0  0  0  0  0  0  0  0  0  0
   16.9499   -1.4567   17.3394 N   0  0  0  0  0  0  0  0  0  0  0  0
   17.9901   -2.5649   17.0242 C   0  0  0  0  0  0  0  0  0  0  0  0
   18.3858   -2.9617   15.9995 O   0  0  0  0  0  0  0  0  0  0  0  0
   18.3892   -3.1935   18.3439 C   0  0  0  0  0  0  0  0  0  0  0  0
   17.4188   -4.1960   18.7231 N   0  0  0  0  0  0  0  0  0  0  0  0
   17.4507   -5.5309   18.4559 C   0  0  0  0  0  0  0  0  0  0  0  0
   16.4072   -6.0353   19.1908 C   0  0  0  0  0  0  0  0  0  0  0  0
   15.7698   -5.0170   19.8414 N   0  0  0  0  0  0  0  0  0  0  0  0
   16.3933   -3.8846   19.5420 N   0  0  0  0  0  0  0  0  0  0  0  0
   13.9327   -0.9430   13.9592 C   0  0  0  0  0  0  0  0  0  0  0  0
    9.7093    5.1477   14.3301 H   0  0  0  0  0  0  0  0  0  0  0  0
    9.1131    4.4640   12.8055 H   0  0  0  0  0  0  0  0  0  0  0  0
   10.2284    5.8376   12.7908 H   0  0  0  0  0  0  0  0  0  0  0  0
   11.5044    3.8666   12.2095 H   0  0  0  0  0  0  0  0  0  0  0  0
   12.0170    4.4155   13.7905 H   0  0  0  0  0  0  0  0  0  0  0  0
   10.1128    2.1080   13.1558 H   0  0  0  0  0  0  0  0  0  0  0  0
    9.4074    3.0428   15.3154 H   0  0  0  0  0  0  0  0  0  0  0  0
   10.1733    1.4919   15.5677 H   0  0  0  0  0  0  0  0  0  0  0  0
   12.2893    2.6394   16.2795 H   0  0  0  0  0  0  0  0  0  0  0  0
   10.8960    3.0702   17.2756 H   0  0  0  0  0  0  0  0  0  0  0  0
   11.4881    4.2103   16.0672 H   0  0  0  0  0  0  0  0  0  0  0  0
   10.6217    0.1521   13.7419 H   0  0  0  0  0  0  0  0  0  0  0  0
   12.0387   -1.8260   13.1881 H   0  0  0  0  0  0  0  0  0  0  0  0
   11.6359   -1.2372   16.0054 H   0  0  0  0  0  0  0  0  0  0  0  0
   12.5613   -2.6478   15.4440 H   0  0  0  0  0  0  0  0  0  0  0  0
   13.5979    0.2971   15.7754 H   0  0  0  0  0  0  0  0  0  0  0  0
   14.3711   -1.4922   17.3851 H   0  0  0  0  0  0  0  0  0  0  0  0
   14.9651   -2.4435   16.0447 H   0  0  0  0  0  0  0  0  0  0  0  0
   16.0032    0.3242   16.8796 H   0  0  0  0  0  0  0  0  0  0  0  0
   16.5992   -0.6148   15.4795 H   0  0  0  0  0  0  0  0  0  0  0  0
   16.7801   -1.4251   18.3416 H   0  0  0  0  0  0  0  0  0  0  0  0
   18.4711   -2.4503   19.1431 H   0  0  0  0  0  0  0  0  0  0  0  0
   19.3656   -3.6778   18.2364 H   0  0  0  0  0  0  0  0  0  0  0  0
   18.1896   -5.9895   17.8152 H   0  0  0  0  0  0  0  0  0  0  0  0
   16.0817   -7.0623   19.2827 H   0  0  0  0  0  0  0  0  0  0  0  0
   14.3977   -0.1216   13.4103 H   0  0  0  0  0  0  0  0  0  0  0  0
   14.4520   -1.8664   13.6716 H   0  0  0  0  0  0  0  0  0  0  0  0
  1  2  1  0
  2  3  1  0
  3  4  1  0
  4  5  1  0
  3  6  1  0
  6  7  2  0
  6  8  1  0
  8  9  1  0
  9 10  1  0
 10 11  1  0
 11 12  1  0
 12 13  1  0
 13 14  1  0
 14 15  1  0
 15 16  2  0
 15 17  1  0
 17 18  1  0
 18 19  1  0
 19 20  2  0
 20 21  1  0
 21 22  2  0
 11 23  1  0
 23  9  1  0
 22 18  1  0
  1 24  1  0
  1 25  1  0
  1 26  1  0
  2 27  1  0
  2 28  1  0
  3 29  1  0
  4 30  1  0
  4 31  1  0
  5 32  1  0
  5 33  1  0
  5 34  1  0
  8 35  1  0
  9 36  1  0
 10 37  1  0
 10 38  1  0
 11 39  1  0
 12 40  1  0
 12 41  1  0
 13 42  1  0
 13 43  1  0
 14 44  1  0
 17 45  1  0
 17 46  1  0
 19 47  1  0
 20 48  1  0
 23 49  1  0
 23 50  1  0
M  END
>  <Energy>  (1441) 
23.020151321108301

>  <compound_id>  (1441) 
87626

>  <target_id>  (1441) 
1

>  <reference_id>  (1441) 
97

>  <inspiration_ids>  (1441) 
[97, 27]

>  <energy_score>  (1441) 
-9.061412126040054

>  <distance_score>  (1441) 
2.6150908901202174

>  <path>  (1441) 
/opt/xchem-fragalysis-2/maxwin/BulkDock/SCRATCH/511017/C87626-P97/C87626-P97.minimised.mol

>  <scratch_subdir>  (1441) 
/opt/xchem-fragalysis-2/maxwin/BulkDock/SCRATCH/511017/C87626-P97

>  <fragmenstein_runtime>  (1441) 
23.406662225723267

>  <fragmenstein_outcome>  (1441) 
too moved

>  <fragmenstein_mode>  (1441) 
expansion

>  <fragmenstein_error>  (1441) 


$$$$
C87626-P27
     RDKit          3D

 50 51  0  0  0  0  0  0  0  0999 V2000
    9.6367    6.0975   14.8509 C   0  0  0  0  0  0  0  0  0  0  0  0
    9.7991    4.8626   13.9772 C   0  0  0  0  0  0  0  0  0  0  0  0
   10.8670    3.8769   14.4931 C   0  0  0  0  0  0  0  0  0  0  0  0
   12.2837    4.4802   14.5862 C   0  0  0  0  0  0  0  0  0  0  0  0
   12.8251    5.0292   13.2720 C   0  0  0  0  0  0  0  0  0  0  0  0
   10.8697    2.5990   13.6232 C   0  0  0  0  0  0  0  0  0  0  0  0
   10.3684    2.5438   12.5685 O   0  0  0  0  0  0  0  0  0  0  0  0
   11.6392    1.5156   14.4304 N   0  0  0  0  0  0  0  0  0  0  0  0
   12.0363    0.1534   14.0579 C   0  0  0  0  0  0  0  0  0  0  0  0
   12.1448   -0.8395   15.2473 C   0  0  0  0  0  0  0  0  0  0  0  0
   13.5994   -0.3054   15.4368 C   0  0  0  0  0  0  0  0  0  0  0  0
   14.6274   -1.2881   15.9423 C   0  0  0  0  0  0  0  0  0  0  0  0
   15.9752   -0.6296   16.1876 C   0  0  0  0  0  0  0  0  0  0  0  0
   16.7693   -1.4757   17.0388 N   0  0  0  0  0  0  0  0  0  0  0  0
   17.7135   -2.6565   16.6878 C   0  0  0  0  0  0  0  0  0  0  0  0
   18.0506   -3.0728   15.6501 O   0  0  0  0  0  0  0  0  0  0  0  0
   18.2036   -3.2465   17.9947 C   0  0  0  0  0  0  0  0  0  0  0  0
   17.2799   -4.2347   18.5000 N   0  0  0  0  0  0  0  0  0  0  0  0
   17.4050   -5.5895   18.4389 C   0  0  0  0  0  0  0  0  0  0  0  0
   16.4305   -6.0461   19.2903 C   0  0  0  0  0  0  0  0  0  0  0  0
   15.7348   -4.9875   19.8006 N   0  0  0  0  0  0  0  0  0  0  0  0
   16.2616   -3.8738   19.3075 N   0  0  0  0  0  0  0  0  0  0  0  0
   13.5748   -0.0037   13.9205 C   0  0  0  0  0  0  0  0  0  0  0  0
   10.5286    6.7300   14.8234 H   0  0  0  0  0  0  0  0  0  0  0  0
    9.4386    5.8199   15.8910 H   0  0  0  0  0  0  0  0  0  0  0  0
    8.7942    6.6997   14.4955 H   0  0  0  0  0  0  0  0  0  0  0  0
    8.8318    4.3463   13.9369 H   0  0  0  0  0  0  0  0  0  0  0  0
   10.0148    5.1707   12.9473 H   0  0  0  0  0  0  0  0  0  0  0  0
   10.5594    3.5722   15.5032 H   0  0  0  0  0  0  0  0  0  0  0  0
   12.2920    5.2822   15.3334 H   0  0  0  0  0  0  0  0  0  0  0  0
   12.9913    3.7276   14.9531 H   0  0  0  0  0  0  0  0  0  0  0  0
   12.8423    4.2605   12.4937 H   0  0  0  0  0  0  0  0  0  0  0  0
   13.8512    5.3849   13.4124 H   0  0  0  0  0  0  0  0  0  0  0  0
   12.2316    5.8748   12.9132 H   0  0  0  0  0  0  0  0  0  0  0  0
   11.8707    1.8781   15.3495 H   0  0  0  0  0  0  0  0  0  0  0  0
   11.4567   -0.2089   13.2071 H   0  0  0  0  0  0  0  0  0  0  0  0
   11.4643   -0.6675   16.0853 H   0  0  0  0  0  0  0  0  0  0  0  0
   12.0786   -1.8930   14.9492 H   0  0  0  0  0  0  0  0  0  0  0  0
   13.6066    0.6056   16.0542 H   0  0  0  0  0  0  0  0  0  0  0  0
   14.2610   -1.7110   16.8878 H   0  0  0  0  0  0  0  0  0  0  0  0
   14.7402   -2.1386   15.2586 H   0  0  0  0  0  0  0  0  0  0  0  0
   15.8724    0.3355   16.6928 H   0  0  0  0  0  0  0  0  0  0  0  0
   16.5072   -0.4814   15.2428 H   0  0  0  0  0  0  0  0  0  0  0  0
   16.6289   -1.4403   18.0457 H   0  0  0  0  0  0  0  0  0  0  0  0
   18.3522   -2.4762   18.7584 H   0  0  0  0  0  0  0  0  0  0  0  0
   19.1725   -3.7298   17.8268 H   0  0  0  0  0  0  0  0  0  0  0  0
   18.1607   -6.0899   17.8512 H   0  0  0  0  0  0  0  0  0  0  0  0
   16.1903   -7.0667   19.5540 H   0  0  0  0  0  0  0  0  0  0  0  0
   14.1283    0.8863   13.6073 H   0  0  0  0  0  0  0  0  0  0  0  0
   13.8728   -0.8427   13.2796 H   0  0  0  0  0  0  0  0  0  0  0  0
  1  2  1  0
  2  3  1  0
  3  4  1  0
  4  5  1  0
  3  6  1  0
  6  7  2  0
  6  8  1  0
  8  9  1  0
  9 10  1  0
 10 11  1  0
 11 12  1  0
 12 13  1  0
 13 14  1  0
 14 15  1  0
 15 16  2  0
 15 17  1  0
 17 18  1  0
 18 19  1  0
 19 20  2  0
 20 21  1  0
 21 22  2  0
 11 23  1  0
 23  9  1  0
 22 18  1  0
  1 24  1  0
  1 25  1  0
  1 26  1  0
  2 27  1  0
  2 28  1  0
  3 29  1  0
  4 30  1  0
  4 31  1  0
  5 32  1  0
  5 33  1  0
  5 34  1  0
  8 35  1  0
  9 36  1  0
 10 37  1  0
 10 38  1  0
 11 39  1  0
 12 40  1  0
 12 41  1  0
 13 42  1  0
 13 43  1  0
 14 44  1  0
 17 45  1  0
 17 46  1  0
 19 47  1  0
 20 48  1  0
 23 49  1  0
 23 50  1  0
M  END
>  <Energy>  (1442) 
22.325966937046179

>  <compound_id>  (1442) 
87626

>  <target_id>  (1442) 
1

>  <reference_id>  (1442) 
27

>  <inspiration_ids>  (1442) 
[97, 27]

>  <energy_score>  (1442) 
-9.755596510101483

>  <distance_score>  (1442) 
2.7527422409957314

>  <path>  (1442) 
/opt/xchem-fragalysis-2/maxwin/BulkDock/SCRATCH/511017/C87626-P27/C87626-P27.minimised.mol

>  <scratch_subdir>  (1442) 
/opt/xchem-fragalysis-2/maxwin/BulkDock/SCRATCH/511017/C87626-P27

>  <fragmenstein_runtime>  (1442) 
23.8096604347229

>  <fragmenstein_outcome>  (1442) 
too moved

>  <fragmenstein_mode>  (1442) 
expansion

>  <fragmenstein_error>  (1442) 


$$$$
C87640-P97
     RDKit          3D

 56 57  0  0  0  0  0  0  0  0999 V2000
   14.1969    1.0337   16.5109 C   0  0  0  0  0  0  0  0  0  0  0  0
   14.7893   -0.3694   16.5340 C   0  0  0  0  0  0  0  0  0  0  0  0
   13.7378   -1.4888   16.4827 C   0  0  0  0  0  0  0  0  0  0  0  0
   13.0664   -1.5671   15.0927 C   0  0  0  0  0  0  0  0  0  0  0  0
   11.8148   -2.4384   15.0957 C   0  0  0  0  0  0  0  0  0  0  0  0
   14.3883   -2.8475   16.8699 C   0  0  0  0  0  0  0  0  0  0  0  0
   14.5738   -3.6564   16.0116 O   0  0  0  0  0  0  0  0  0  0  0  0
   14.6360   -2.9079   18.2812 N   0  0  0  0  0  0  0  0  0  0  0  0
   15.0991   -4.0025   19.1233 C   0  0  0  0  0  0  0  0  0  0  0  0
   16.3504   -4.6847   18.5523 C   0  0  0  0  0  0  0  0  0  0  0  0
   17.5968   -4.4699   19.4101 C   0  0  0  0  0  0  0  0  0  0  0  0
   17.7329   -3.1173   19.9544 N   0  0  0  0  0  0  0  0  0  0  0  0
   17.9740   -2.0659   18.9377 C   0  0  0  0  0  0  0  0  0  0  0  0
   19.0856   -2.4032   17.9228 C   0  0  0  0  0  0  0  0  0  0  0  0
   20.2490   -2.4361   18.2326 O   0  0  0  0  0  0  0  0  0  0  0  0
   18.4434   -2.6849   16.6637 N   0  0  0  0  0  0  0  0  0  0  0  0
   18.3246   -1.3613   15.7984 C   0  0  0  0  0  0  0  0  0  0  0  0
   19.5612   -0.4792   15.5941 C   0  0  0  0  0  0  0  0  0  0  0  0
   19.0018   -3.2126   15.3779 C   0  0  0  0  0  0  0  0  0  0  0  0
   18.1160   -3.8123   14.3034 C   0  0  0  0  0  0  0  0  0  0  0  0
   18.8716   -4.7225   15.2058 C   0  0  0  0  0  0  0  0  0  0  0  0
   16.5765   -2.7545   20.7921 C   0  0  0  0  0  0  0  0  0  0  0  0
   15.3044   -3.5846   20.5764 C   0  0  0  0  0  0  0  0  0  0  0  0
   13.4947    1.1790   17.3354 H   0  0  0  0  0  0  0  0  0  0  0  0
   13.6780    1.2445   15.5723 H   0  0  0  0  0  0  0  0  0  0  0  0
   14.9952    1.7756   16.6172 H   0  0  0  0  0  0  0  0  0  0  0  0
   15.4776   -0.4773   15.6883 H   0  0  0  0  0  0  0  0  0  0  0  0
   15.3932   -0.4579   17.4433 H   0  0  0  0  0  0  0  0  0  0  0  0
   12.9538   -1.2695   17.2080 H   0  0  0  0  0  0  0  0  0  0  0  0
   12.7694   -0.5715   14.7477 H   0  0  0  0  0  0  0  0  0  0  0  0
   13.7746   -1.9529   14.3497 H   0  0  0  0  0  0  0  0  0  0  0  0
   11.4722   -2.5998   14.0703 H   0  0  0  0  0  0  0  0  0  0  0  0
   11.0083   -1.9484   15.6489 H   0  0  0  0  0  0  0  0  0  0  0  0
   11.9899   -3.4184   15.5467 H   0  0  0  0  0  0  0  0  0  0  0  0
   14.2794   -2.0683   18.7141 H   0  0  0  0  0  0  0  0  0  0  0  0
   14.2763   -4.7279   19.0852 H   0  0  0  0  0  0  0  0  0  0  0  0
   16.1690   -5.7657   18.4977 H   0  0  0  0  0  0  0  0  0  0  0  0
   16.5471   -4.3657   17.5258 H   0  0  0  0  0  0  0  0  0  0  0  0
   18.4905   -4.7644   18.8477 H   0  0  0  0  0  0  0  0  0  0  0  0
   17.5706   -5.1732   20.2541 H   0  0  0  0  0  0  0  0  0  0  0  0
   17.0511   -1.8274   18.4024 H   0  0  0  0  0  0  0  0  0  0  0  0
   18.2889   -1.1417   19.4391 H   0  0  0  0  0  0  0  0  0  0  0  0
   17.7193   -1.4746   14.8861 H   0  0  0  0  0  0  0  0  0  0  0  0
   17.6743   -0.7456   16.4353 H   0  0  0  0  0  0  0  0  0  0  0  0
   20.0917   -0.3004   16.5336 H   0  0  0  0  0  0  0  0  0  0  0  0
   19.2503    0.4956   15.2020 H   0  0  0  0  0  0  0  0  0  0  0  0
   20.2704   -0.8970   14.8751 H   0  0  0  0  0  0  0  0  0  0  0  0
   20.0385   -2.9333   15.1825 H   0  0  0  0  0  0  0  0  0  0  0  0
   18.4397   -3.7215   13.2740 H   0  0  0  0  0  0  0  0  0  0  0  0
   17.0385   -3.7709   14.4335 H   0  0  0  0  0  0  0  0  0  0  0  0
   18.3090   -5.2803   15.9455 H   0  0  0  0  0  0  0  0  0  0  0  0
   19.7193   -5.2604   14.7986 H   0  0  0  0  0  0  0  0  0  0  0  0
   16.8776   -2.8680   21.8412 H   0  0  0  0  0  0  0  0  0  0  0  0
   16.3284   -1.6901   20.6847 H   0  0  0  0  0  0  0  0  0  0  0  0
   14.4365   -3.0262   20.9463 H   0  0  0  0  0  0  0  0  0  0  0  0
   15.3726   -4.4925   21.1908 H   0  0  0  0  0  0  0  0  0  0  0  0
  1  2  1  0
  2  3  1  0
  3  4  1  0
  4  5  1  0
  3  6  1  0
  6  7  2  0
  6  8  1  0
  8  9  1  0
  9 10  1  0
 10 11  1  0
 11 12  1  0
 12 13  1  0
 13 14  1  0
 14 15  2  0
 14 16  1  0
 16 17  1  0
 17 18  1  0
 16 19  1  0
 19 20  1  0
 20 21  1  0
 12 22  1  0
 22 23  1  0
 23  9  1  0
 21 19  1  0
  1 24  1  0
  1 25  1  0
  1 26  1  0
  2 27  1  0
  2 28  1  0
  3 29  1  0
  4 30  1  0
  4 31  1  0
  5 32  1  0
  5 33  1  0
  5 34  1  0
  8 35  1  0
  9 36  1  0
 10 37  1  0
 10 38  1  0
 11 39  1  0
 11 40  1  0
 13 41  1  0
 13 42  1  0
 17 43  1  0
 17 44  1  0
 18 45  1  0
 18 46  1  0
 18 47  1  0
 19 48  1  0
 20 49  1  0
 20 50  1  0
 21 51  1  0
 21 52  1  0
 22 53  1  0
 22 54  1  0
 23 55  1  0
 23 56  1  0
M  END
>  <Energy>  (1443) 
115.8594198678274

>  <compound_id>  (1443) 
87640

>  <target_id>  (1443) 
1

>  <reference_id>  (1443) 
97

>  <inspiration_ids>  (1443) 
[97, 27]

>  <energy_score>  (1443) 
8.349841830204326

>  <distance_score>  (1443) 
2.8158234423935418

>  <path>  (1443) 
/opt/xchem-fragalysis-2/maxwin/BulkDock/SCRATCH/511017/C87640-P97/C87640-P97.minimised.mol

>  <scratch_subdir>  (1443) 
/opt/xchem-fragalysis-2/maxwin/BulkDock/SCRATCH/511017/C87640-P97

>  <fragmenstein_runtime>  (1443) 
20.496686697006226

>  <fragmenstein_outcome>  (1443) 
too moved

>  <fragmenstein_mode>  (1443) 
expansion

>  <fragmenstein_error>  (1443) 


$$$$
C87640-P27
     RDKit          3D

 56 57  0  0  0  0  0  0  0  0999 V2000
   13.0951    1.1245   16.3285 C   0  0  0  0  0  0  0  0  0  0  0  0
   13.6318    0.4667   15.0676 C   0  0  0  0  0  0  0  0  0  0  0  0
   13.6909   -1.0702   15.0618 C   0  0  0  0  0  0  0  0  0  0  0  0
   12.3948   -1.8290   14.7142 C   0  0  0  0  0  0  0  0  0  0  0  0
   11.0972   -1.2614   15.2568 C   0  0  0  0  0  0  0  0  0  0  0  0
   14.5567   -1.5927   16.2363 C   0  0  0  0  0  0  0  0  0  0  0  0
   15.7363   -1.4018   16.1515 O   0  0  0  0  0  0  0  0  0  0  0  0
   13.7835   -2.2235   17.2629 N   0  0  0  0  0  0  0  0  0  0  0  0
   14.1918   -2.9168   18.4800 C   0  0  0  0  0  0  0  0  0  0  0  0
   14.7948   -4.2799   18.1514 C   0  0  0  0  0  0  0  0  0  0  0  0
   16.2965   -4.1943   17.9102 C   0  0  0  0  0  0  0  0  0  0  0  0
   17.0594   -3.6099   19.0258 N   0  0  0  0  0  0  0  0  0  0  0  0
   18.1376   -2.7108   18.5307 C   0  0  0  0  0  0  0  0  0  0  0  0
   19.0730   -3.4129   17.5196 C   0  0  0  0  0  0  0  0  0  0  0  0
   19.8882   -4.2277   17.8735 O   0  0  0  0  0  0  0  0  0  0  0  0
   18.6954   -2.9763   16.1946 N   0  0  0  0  0  0  0  0  0  0  0  0
   19.5769   -1.7348   15.7542 C   0  0  0  0  0  0  0  0  0  0  0  0
   18.7171   -0.5933   15.2010 C   0  0  0  0  0  0  0  0  0  0  0  0
   19.1163   -3.4759   14.8390 C   0  0  0  0  0  0  0  0  0  0  0  0
   20.3143   -4.3661   14.6077 C   0  0  0  0  0  0  0  0  0  0  0  0
   18.9566   -4.9782   14.6338 C   0  0  0  0  0  0  0  0  0  0  0  0
   16.2137   -2.9147   20.0051 C   0  0  0  0  0  0  0  0  0  0  0  0
   15.1082   -2.0708   19.3693 C   0  0  0  0  0  0  0  0  0  0  0  0
   12.0188    0.9845   16.4247 H   0  0  0  0  0  0  0  0  0  0  0  0
   13.2702    2.2050   16.2835 H   0  0  0  0  0  0  0  0  0  0  0  0
   13.5848    0.7493   17.2313 H   0  0  0  0  0  0  0  0  0  0  0  0
   14.6528    0.8447   14.9205 H   0  0  0  0  0  0  0  0  0  0  0  0
   13.0567    0.8169   14.2019 H   0  0  0  0  0  0  0  0  0  0  0  0
   14.3310   -1.3160   14.1961 H   0  0  0  0  0  0  0  0  0  0  0  0
   12.2978   -1.8538   13.6203 H   0  0  0  0  0  0  0  0  0  0  0  0
   12.4790   -2.8776   15.0223 H   0  0  0  0  0  0  0  0  0  0  0  0
   10.8487   -0.3108   14.7750 H   0  0  0  0  0  0  0  0  0  0  0  0
   11.1423   -1.1035   16.3332 H   0  0  0  0  0  0  0  0  0  0  0  0
   10.2737   -1.9541   15.0592 H   0  0  0  0  0  0  0  0  0  0  0  0
   12.8050   -2.1337   17.0390 H   0  0  0  0  0  0  0  0  0  0  0  0
   13.2602   -3.1115   19.0210 H   0  0  0  0  0  0  0  0  0  0  0  0
   14.6032   -4.9735   18.9804 H   0  0  0  0  0  0  0  0  0  0  0  0
   14.3011   -4.6920   17.2649 H   0  0  0  0  0  0  0  0  0  0  0  0
   16.6860   -5.2015   17.7204 H   0  0  0  0  0  0  0  0  0  0  0  0
   16.4292   -3.6362   16.9813 H   0  0  0  0  0  0  0  0  0  0  0  0
   17.7201   -1.8006   18.0852 H   0  0  0  0  0  0  0  0  0  0  0  0
   18.7721   -2.3942   19.3678 H   0  0  0  0  0  0  0  0  0  0  0  0
   20.0031   -1.3522   16.6945 H   0  0  0  0  0  0  0  0  0  0  0  0
   20.4811   -1.9230   15.1511 H   0  0  0  0  0  0  0  0  0  0  0  0
   18.1459   -0.8829   14.3153 H   0  0  0  0  0  0  0  0  0  0  0  0
   19.3552    0.2546   14.9321 H   0  0  0  0  0  0  0  0  0  0  0  0
   18.0112   -0.2453   15.9607 H   0  0  0  0  0  0  0  0  0  0  0  0
   18.6527   -2.9494   14.0009 H   0  0  0  0  0  0  0  0  0  0  0  0
   20.9753   -4.5731   15.4423 H   0  0  0  0  0  0  0  0  0  0  0  0
   20.8224   -4.2898   13.6540 H   0  0  0  0  0  0  0  0  0  0  0  0
   18.6947   -5.5908   15.4895 H   0  0  0  0  0  0  0  0  0  0  0  0
   18.5297   -5.3188   13.6997 H   0  0  0  0  0  0  0  0  0  0  0  0
   15.7569   -3.6663   20.6622 H   0  0  0  0  0  0  0  0  0  0  0  0
   16.8226   -2.2901   20.6708 H   0  0  0  0  0  0  0  0  0  0  0  0
   15.5549   -1.2392   18.8128 H   0  0  0  0  0  0  0  0  0  0  0  0
   14.5092   -1.6036   20.1609 H   0  0  0  0  0  0  0  0  0  0  0  0
  1  2  1  0
  2  3  1  0
  3  4  1  0
  4  5  1  0
  3  6  1  0
  6  7  2  0
  6  8  1  0
  8  9  1  0
  9 10  1  0
 10 11  1  0
 11 12  1  0
 12 13  1  0
 13 14  1  0
 14 15  2  0
 14 16  1  0
 16 17  1  0
 17 18  1  0
 16 19  1  0
 19 20  1  0
 20 21  1  0
 12 22  1  0
 22 23  1  0
 23  9  1  0
 21 19  1  0
  1 24  1  0
  1 25  1  0
  1 26  1  0
  2 27  1  0
  2 28  1  0
  3 29  1  0
  4 30  1  0
  4 31  1  0
  5 32  1  0
  5 33  1  0
  5 34  1  0
  8 35  1  0
  9 36  1  0
 10 37  1  0
 10 38  1  0
 11 39  1  0
 11 40  1  0
 13 41  1  0
 13 42  1  0
 17 43  1  0
 17 44  1  0
 18 45  1  0
 18 46  1  0
 18 47  1  0
 19 48  1  0
 20 49  1  0
 20 50  1  0
 21 51  1  0
 21 52  1  0
 22 53  1  0
 22 54  1  0
 23 55  1  0
 23 56  1  0
M  END
>  <Energy>  (1444) 
120.56340139730963

>  <compound_id>  (1444) 
87640

>  <target_id>  (1444) 
1

>  <reference_id>  (1444) 
27

>  <inspiration_ids>  (1444) 
[97, 27]

>  <energy_score>  (1444) 
13.0538233596873

>  <distance_score>  (1444) 
3.2573913294937267

>  <path>  (1444) 
/opt/xchem-fragalysis-2/maxwin/BulkDock/SCRATCH/511017/C87640-P27/C87640-P27.minimised.mol

>  <scratch_subdir>  (1444) 
/opt/xchem-fragalysis-2/maxwin/BulkDock/SCRATCH/511017/C87640-P27

>  <fragmenstein_runtime>  (1444) 
19.620675325393677

>  <fragmenstein_outcome>  (1444) 
too moved

>  <fragmenstein_mode>  (1444) 
expansion

>  <fragmenstein_error>  (1444) 


$$$$
C87635-P97
     RDKit          3D

 53 54  0  0  0  0  0  0  0  0999 V2000
   11.0374    1.0384   15.2182 C   0  0  0  0  0  0  0  0  0  0  0  0
   12.4938    0.7242   15.5232 C   0  0  0  0  0  0  0  0  0  0  0  0
   12.7542   -0.7712   15.7857 C   0  0  0  0  0  0  0  0  0  0  0  0
   12.5361   -1.6295   14.5247 C   0  0  0  0  0  0  0  0  0  0  0  0
   11.5148   -2.7326   14.7647 C   0  0  0  0  0  0  0  0  0  0  0  0
   14.1924   -0.9605   16.3106 C   0  0  0  0  0  0  0  0  0  0  0  0
   14.9845   -0.0725   16.1885 O   0  0  0  0  0  0  0  0  0  0  0  0
   14.3461   -2.2860   16.8350 N   0  0  0  0  0  0  0  0  0  0  0  0
   15.5088   -2.9865   17.2847 C   0  0  0  0  0  0  0  0  0  0  0  0
   15.3534   -4.4338   17.6854 C   0  0  0  0  0  0  0  0  0  0  0  0
   16.7034   -4.7069   18.3548 C   0  0  0  0  0  0  0  0  0  0  0  0
   17.0697   -3.4428   19.0058 N   0  0  0  0  0  0  0  0  0  0  0  0
   18.5101   -3.1113   19.0097 C   0  0  0  0  0  0  0  0  0  0  0  0
   19.2900   -3.1368   17.6616 C   0  0  0  0  0  0  0  0  0  0  0  0
   20.3936   -3.6261   17.6507 O   0  0  0  0  0  0  0  0  0  0  0  0
   18.5212   -2.5515   16.6034 N   0  0  0  0  0  0  0  0  0  0  0  0
   18.8034   -0.9870   16.5142 C   0  0  0  0  0  0  0  0  0  0  0  0
   20.2355   -0.4772   16.3230 C   0  0  0  0  0  0  0  0  0  0  0  0
   18.7924   -2.4590   15.1268 C   0  0  0  0  0  0  0  0  0  0  0  0
   18.1192   -3.5444   14.2935 C   0  0  0  0  0  0  0  0  0  0  0  0
   17.7332   -2.1217   14.0925 C   0  0  0  0  0  0  0  0  0  0  0  0
   16.1817   -2.3868   18.5124 C   0  0  0  0  0  0  0  0  0  0  0  0
   10.8946    2.1215   15.1457 H   0  0  0  0  0  0  0  0  0  0  0  0
   10.7193    0.6011   14.2673 H   0  0  0  0  0  0  0  0  0  0  0  0
   10.3729    0.6625   16.0016 H   0  0  0  0  0  0  0  0  0  0  0  0
   13.1187    1.0797   14.6942 H   0  0  0  0  0  0  0  0  0  0  0  0
   12.7898    1.3070   16.4048 H   0  0  0  0  0  0  0  0  0  0  0  0
   12.0784   -1.0909   16.5841 H   0  0  0  0  0  0  0  0  0  0  0  0
   12.1904   -1.0198   13.6832 H   0  0  0  0  0  0  0  0  0  0  0  0
   13.4752   -2.0869   14.1921 H   0  0  0  0  0  0  0  0  0  0  0  0
   11.8260   -3.4115   15.5629 H   0  0  0  0  0  0  0  0  0  0  0  0
   11.3875   -3.3246   13.8544 H   0  0  0  0  0  0  0  0  0  0  0  0
   10.5438   -2.3101   15.0394 H   0  0  0  0  0  0  0  0  0  0  0  0
   13.4806   -2.7937   16.7068 H   0  0  0  0  0  0  0  0  0  0  0  0
   16.1816   -2.9443   16.4306 H   0  0  0  0  0  0  0  0  0  0  0  0
   14.5250   -4.5655   18.3919 H   0  0  0  0  0  0  0  0  0  0  0  0
   15.1827   -5.0767   16.8186 H   0  0  0  0  0  0  0  0  0  0  0  0
   16.6278   -5.5199   19.0834 H   0  0  0  0  0  0  0  0  0  0  0  0
   17.4258   -5.0083   17.5880 H   0  0  0  0  0  0  0  0  0  0  0  0
   18.6717   -2.1321   19.4761 H   0  0  0  0  0  0  0  0  0  0  0  0
   19.0021   -3.8409   19.6660 H   0  0  0  0  0  0  0  0  0  0  0  0
   18.0674   -0.4597   15.8892 H   0  0  0  0  0  0  0  0  0  0  0  0
   18.5422   -0.6487   17.5268 H   0  0  0  0  0  0  0  0  0  0  0  0
   20.2873    0.5784   16.6122 H   0  0  0  0  0  0  0  0  0  0  0  0
   20.9483   -1.0272   16.9436 H   0  0  0  0  0  0  0  0  0  0  0  0
   20.5695   -0.5297   15.2828 H   0  0  0  0  0  0  0  0  0  0  0  0
   19.8562   -2.4538   14.8776 H   0  0  0  0  0  0  0  0  0  0  0  0
   17.4060   -4.2034   14.7738 H   0  0  0  0  0  0  0  0  0  0  0  0
   18.7068   -4.0264   13.5209 H   0  0  0  0  0  0  0  0  0  0  0  0
   16.7499   -1.8122   14.4274 H   0  0  0  0  0  0  0  0  0  0  0  0
   18.0590   -1.6265   13.1850 H   0  0  0  0  0  0  0  0  0  0  0  0
   15.4309   -2.1820   19.2869 H   0  0  0  0  0  0  0  0  0  0  0  0
   16.6665   -1.4306   18.3053 H   0  0  0  0  0  0  0  0  0  0  0  0
  1  2  1  0
  2  3  1  0
  3  4  1  0
  4  5  1  0
  3  6  1  0
  6  7  2  0
  6  8  1  0
  8  9  1  0
  9 10  1  0
 10 11  1  0
 11 12  1  0
 12 13  1  0
 13 14  1  0
 14 15  2  0
 14 16  1  0
 16 17  1  0
 17 18  1  0
 16 19  1  0
 19 20  1  0
 20 21  1  0
 12 22  1  0
 22  9  1  0
 21 19  1  0
  1 23  1  0
  1 24  1  0
  1 25  1  0
  2 26  1  0
  2 27  1  0
  3 28  1  0
  4 29  1  0
  4 30  1  0
  5 31  1  0
  5 32  1  0
  5 33  1  0
  8 34  1  0
  9 35  1  0
 10 36  1  0
 10 37  1  0
 11 38  1  0
 11 39  1  0
 13 40  1  0
 13 41  1  0
 17 42  1  0
 17 43  1  0
 18 44  1  0
 18 45  1  0
 18 46  1  0
 19 47  1  0
 20 48  1  0
 20 49  1  0
 21 50  1  0
 21 51  1  0
 22 52  1  0
 22 53  1  0
M  END
>  <Energy>  (1445) 
134.75812486338725

>  <compound_id>  (1445) 
87635

>  <target_id>  (1445) 
1

>  <reference_id>  (1445) 
97

>  <inspiration_ids>  (1445) 
[97, 27]

>  <energy_score>  (1445) 
14.787912805902266

>  <distance_score>  (1445) 
3.32234658781688

>  <path>  (1445) 
/opt/xchem-fragalysis-2/maxwin/BulkDock/SCRATCH/511017/C87635-P97/C87635-P97.minimised.mol

>  <scratch_subdir>  (1445) 
/opt/xchem-fragalysis-2/maxwin/BulkDock/SCRATCH/511017/C87635-P97

>  <fragmenstein_runtime>  (1445) 
16.8547306060791

>  <fragmenstein_outcome>  (1445) 
too moved

>  <fragmenstein_mode>  (1445) 
expansion

>  <fragmenstein_error>  (1445) 


$$$$
C87635-P27
     RDKit          3D

 53 54  0  0  0  0  0  0  0  0999 V2000
   12.5129    1.2377   15.5296 C   0  0  0  0  0  0  0  0  0  0  0  0
   13.5571    0.1546   15.7560 C   0  0  0  0  0  0  0  0  0  0  0  0
   12.9561   -1.1527   16.3008 C   0  0  0  0  0  0  0  0  0  0  0  0
   12.0786   -1.9782   15.3452 C   0  0  0  0  0  0  0  0  0  0  0  0
   12.4686   -1.9589   13.8783 C   0  0  0  0  0  0  0  0  0  0  0  0
   14.0221   -2.0222   17.0050 C   0  0  0  0  0  0  0  0  0  0  0  0
   13.8752   -2.2684   18.1652 O   0  0  0  0  0  0  0  0  0  0  0  0
   15.0757   -2.3604   16.1089 N   0  0  0  0  0  0  0  0  0  0  0  0
   16.3305   -3.0174   16.3360 C   0  0  0  0  0  0  0  0  0  0  0  0
   16.2661   -4.4623   16.7752 C   0  0  0  0  0  0  0  0  0  0  0  0
   17.6836   -4.7166   17.2912 C   0  0  0  0  0  0  0  0  0  0  0  0
   18.2005   -3.4148   17.7482 N   0  0  0  0  0  0  0  0  0  0  0  0
   19.5433   -3.0700   17.2342 C   0  0  0  0  0  0  0  0  0  0  0  0
   19.6920   -3.0421   15.6913 C   0  0  0  0  0  0  0  0  0  0  0  0
   20.2448   -3.9510   15.1229 O   0  0  0  0  0  0  0  0  0  0  0  0
   19.0525   -1.8588   15.1671 N   0  0  0  0  0  0  0  0  0  0  0  0
   20.0930   -0.6708   15.0692 C   0  0  0  0  0  0  0  0  0  0  0  0
   19.5026    0.6293   15.6259 C   0  0  0  0  0  0  0  0  0  0  0  0
   18.7735   -1.4370   13.7414 C   0  0  0  0  0  0  0  0  0  0  0  0
   18.0704   -2.4838   12.8840 C   0  0  0  0  0  0  0  0  0  0  0  0
   19.4494   -2.0478   12.5348 C   0  0  0  0  0  0  0  0  0  0  0  0
   17.1696   -2.4097   17.4576 C   0  0  0  0  0  0  0  0  0  0  0  0
   11.7370    0.9118   14.8311 H   0  0  0  0  0  0  0  0  0  0  0  0
   12.0311    1.5220   16.4691 H   0  0  0  0  0  0  0  0  0  0  0  0
   12.9854    2.1337   15.1143 H   0  0  0  0  0  0  0  0  0  0  0  0
   14.1000   -0.0143   14.8198 H   0  0  0  0  0  0  0  0  0  0  0  0
   14.2984    0.5393   16.4682 H   0  0  0  0  0  0  0  0  0  0  0  0
   12.2891   -0.8525   17.1156 H   0  0  0  0  0  0  0  0  0  0  0  0
   12.0449   -3.0207   15.6865 H   0  0  0  0  0  0  0  0  0  0  0  0
   11.0474   -1.6076   15.4141 H   0  0  0  0  0  0  0  0  0  0  0  0
   13.5176   -2.2121   13.7178 H   0  0  0  0  0  0  0  0  0  0  0  0
   12.2855   -0.9764   13.4346 H   0  0  0  0  0  0  0  0  0  0  0  0
   11.8677   -2.6888   13.3282 H   0  0  0  0  0  0  0  0  0  0  0  0
   14.9064   -1.9138   15.2193 H   0  0  0  0  0  0  0  0  0  0  0  0
   16.8505   -2.9765   15.3789 H   0  0  0  0  0  0  0  0  0  0  0  0
   15.5311   -4.6043   17.5760 H   0  0  0  0  0  0  0  0  0  0  0  0
   16.0093   -5.1200   15.9423 H   0  0  0  0  0  0  0  0  0  0  0  0
   17.6721   -5.4352   18.1172 H   0  0  0  0  0  0  0  0  0  0  0  0
   18.2883   -5.1538   16.4894 H   0  0  0  0  0  0  0  0  0  0  0  0
   19.8579   -2.1026   17.6435 H   0  0  0  0  0  0  0  0  0  0  0  0
   20.2668   -3.7989   17.6207 H   0  0  0  0  0  0  0  0  0  0  0  0
   20.8977   -0.9509   15.7658 H   0  0  0  0  0  0  0  0  0  0  0  0
   20.6419   -0.5365   14.1227 H   0  0  0  0  0  0  0  0  0  0  0  0
   18.7020    1.0372   15.0039 H   0  0  0  0  0  0  0  0  0  0  0  0
   19.0957    0.4683   16.6295 H   0  0  0  0  0  0  0  0  0  0  0  0
   20.2865    1.3901   15.6992 H   0  0  0  0  0  0  0  0  0  0  0  0
   18.2442   -0.4867   13.6455 H   0  0  0  0  0  0  0  0  0  0  0  0
   17.9510   -3.4859   13.2797 H   0  0  0  0  0  0  0  0  0  0  0  0
   17.2532   -2.1603   12.2502 H   0  0  0  0  0  0  0  0  0  0  0  0
   19.5809   -1.4234   11.6589 H   0  0  0  0  0  0  0  0  0  0  0  0
   20.2570   -2.7543   12.6941 H   0  0  0  0  0  0  0  0  0  0  0  0
   16.5654   -2.2812   18.3645 H   0  0  0  0  0  0  0  0  0  0  0  0
   17.5543   -1.4143   17.2161 H   0  0  0  0  0  0  0  0  0  0  0  0
  1  2  1  0
  2  3  1  0
  3  4  1  0
  4  5  1  0
  3  6  1  0
  6  7  2  0
  6  8  1  0
  8  9  1  0
  9 10  1  0
 10 11  1  0
 11 12  1  0
 12 13  1  0
 13 14  1  0
 14 15  2  0
 14 16  1  0
 16 17  1  0
 17 18  1  0
 16 19  1  0
 19 20  1  0
 20 21  1  0
 12 22  1  0
 22  9  1  0
 21 19  1  0
  1 23  1  0
  1 24  1  0
  1 25  1  0
  2 26  1  0
  2 27  1  0
  3 28  1  0
  4 29  1  0
  4 30  1  0
  5 31  1  0
  5 32  1  0
  5 33  1  0
  8 34  1  0
  9 35  1  0
 10 36  1  0
 10 37  1  0
 11 38  1  0
 11 39  1  0
 13 40  1  0
 13 41  1  0
 17 42  1  0
 17 43  1  0
 18 44  1  0
 18 45  1  0
 18 46  1  0
 19 47  1  0
 20 48  1  0
 20 49  1  0
 21 50  1  0
 21 51  1  0
 22 52  1  0
 22 53  1  0
M  END
>  <Energy>  (1446) 
134.52463953346367

>  <compound_id>  (1446) 
87635

>  <target_id>  (1446) 
1

>  <reference_id>  (1446) 
27

>  <inspiration_ids>  (1446) 
[97, 27]

>  <energy_score>  (1446) 
14.554427475979281

>  <distance_score>  (1446) 
3.634989883809354

>  <path>  (1446) 
/opt/xchem-fragalysis-2/maxwin/BulkDock/SCRATCH/511017/C87635-P27/C87635-P27.minimised.mol

>  <scratch_subdir>  (1446) 
/opt/xchem-fragalysis-2/maxwin/BulkDock/SCRATCH/511017/C87635-P27

>  <fragmenstein_runtime>  (1446) 
15.68296480178833

>  <fragmenstein_outcome>  (1446) 
too moved

>  <fragmenstein_mode>  (1446) 
expansion

>  <fragmenstein_error>  (1446) 


$$$$
C87638-P97
     RDKit          3D

 47 48  0  0  0  0  0  0  0  0999 V2000
   13.1557    0.9998   16.0058 C   0  0  0  0  0  0  0  0  0  0  0  0
   13.7203   -0.2537   16.6560 C   0  0  0  0  0  0  0  0  0  0  0  0
   12.9677   -1.5747   16.4066 C   0  0  0  0  0  0  0  0  0  0  0  0
   12.4249   -1.7371   14.9694 C   0  0  0  0  0  0  0  0  0  0  0  0
   11.1826   -2.6167   14.9153 C   0  0  0  0  0  0  0  0  0  0  0  0
   13.6772   -2.9152   16.8570 C   0  0  0  0  0  0  0  0  0  0  0  0
   13.4153   -3.9183   16.3151 O   0  0  0  0  0  0  0  0  0  0  0  0
   14.6152   -2.6393   18.0709 N   0  0  0  0  0  0  0  0  0  0  0  0
   15.3377   -3.5460   18.9129 C   0  0  0  0  0  0  0  0  0  0  0  0
   16.0964   -2.8957   20.0501 C   0  0  0  0  0  0  0  0  0  0  0  0
   17.5915   -2.6873   19.7730 C   0  0  0  0  0  0  0  0  0  0  0  0
   17.8963   -2.0339   18.5199 N   0  0  0  0  0  0  0  0  0  0  0  0
   17.3001   -0.7468   17.8810 C   0  0  0  0  0  0  0  0  0  0  0  0
   16.5282    0.0214   18.3056 O   0  0  0  0  0  0  0  0  0  0  0  0
   17.8807   -0.6113   16.4713 C   0  0  0  0  0  0  0  0  0  0  0  0
   16.9556   -1.1226   15.4836 N   0  0  0  0  0  0  0  0  0  0  0  0
   16.4454   -2.3785   15.4090 C   0  0  0  0  0  0  0  0  0  0  0  0
   15.5953   -2.4442   14.4199 N   0  0  0  0  0  0  0  0  0  0  0  0
   15.6801   -1.2126   13.8562 C   0  0  0  0  0  0  0  0  0  0  0  0
   16.5294   -0.3686   14.4530 N   0  0  0  0  0  0  0  0  0  0  0  0
   15.8761   -4.8427   18.3257 C   0  0  0  0  0  0  0  0  0  0  0  0
   14.6846   -4.8701   19.2270 C   0  0  0  0  0  0  0  0  0  0  0  0
   13.6307    1.8893   16.4332 H   0  0  0  0  0  0  0  0  0  0  0  0
   12.0767    1.0862   16.1588 H   0  0  0  0  0  0  0  0  0  0  0  0
   13.3581    1.0140   14.9304 H   0  0  0  0  0  0  0  0  0  0  0  0
   14.7581   -0.3432   16.3673 H   0  0  0  0  0  0  0  0  0  0  0  0
   13.7369   -0.0540   17.7316 H   0  0  0  0  0  0  0  0  0  0  0  0
   12.0787   -1.5131   17.0195 H   0  0  0  0  0  0  0  0  0  0  0  0
   12.1584   -0.7817   14.5108 H   0  0  0  0  0  0  0  0  0  0  0  0
   13.1760   -2.1911   14.3232 H   0  0  0  0  0  0  0  0  0  0  0  0
   11.2144   -3.4667   15.5989 H   0  0  0  0  0  0  0  0  0  0  0  0
   11.0776   -3.0242   13.9084 H   0  0  0  0  0  0  0  0  0  0  0  0
   10.2930   -2.0287   15.1594 H   0  0  0  0  0  0  0  0  0  0  0  0
   14.6765   -1.6431   18.2312 H   0  0  0  0  0  0  0  0  0  0  0  0
   15.6384   -1.9244   20.2787 H   0  0  0  0  0  0  0  0  0  0  0  0
   16.0004   -3.4857   20.9701 H   0  0  0  0  0  0  0  0  0  0  0  0
   18.1210   -3.6452   19.7687 H   0  0  0  0  0  0  0  0  0  0  0  0
   18.0240   -2.0724   20.5690 H   0  0  0  0  0  0  0  0  0  0  0  0
   18.6036   -2.4210   17.9056 H   0  0  0  0  0  0  0  0  0  0  0  0
   18.0624    0.4501   16.2701 H   0  0  0  0  0  0  0  0  0  0  0  0
   18.8287   -1.1425   16.3501 H   0  0  0  0  0  0  0  0  0  0  0  0
   16.6995   -3.1823   16.0835 H   0  0  0  0  0  0  0  0  0  0  0  0
   15.1160   -0.9195   12.9798 H   0  0  0  0  0  0  0  0  0  0  0  0
   15.7063   -5.0504   17.2744 H   0  0  0  0  0  0  0  0  0  0  0  0
   16.7918   -5.2752   18.7081 H   0  0  0  0  0  0  0  0  0  0  0  0
   13.6974   -5.0389   18.8104 H   0  0  0  0  0  0  0  0  0  0  0  0
   14.8019   -5.2994   20.2154 H   0  0  0  0  0  0  0  0  0  0  0  0
  1  2  1  0
  2  3  1  0
  3  4  1  0
  4  5  1  0
  3  6  1  0
  6  7  2  0
  6  8  1  0
  8  9  1  0
  9 10  1  0
 10 11  1  0
 11 12  1  0
 12 13  1  0
 13 14  2  0
 13 15  1  0
 15 16  1  0
 16 17  1  0
 17 18  2  0
 18 19  1  0
 19 20  2  0
  9 21  1  0
 21 22  1  0
 22  9  1  0
 20 16  1  0
  1 23  1  0
  1 24  1  0
  1 25  1  0
  2 26  1  0
  2 27  1  0
  3 28  1  0
  4 29  1  0
  4 30  1  0
  5 31  1  0
  5 32  1  0
  5 33  1  0
  8 34  1  0
 10 35  1  0
 10 36  1  0
 11 37  1  0
 11 38  1  0
 12 39  1  0
 15 40  1  0
 15 41  1  0
 17 42  1  0
 19 43  1  0
 21 44  1  0
 21 45  1  0
 22 46  1  0
 22 47  1  0
M  END
>  <Energy>  (1447) 
57.541601615847526

>  <compound_id>  (1447) 
87638

>  <target_id>  (1447) 
1

>  <reference_id>  (1447) 
97

>  <inspiration_ids>  (1447) 
[97, 27]

>  <energy_score>  (1447) 
26.636576524734863

>  <distance_score>  (1447) 
2.450749171981696

>  <path>  (1447) 
/opt/xchem-fragalysis-2/maxwin/BulkDock/SCRATCH/511017/C87638-P97/C87638-P97.minimised.mol

>  <scratch_subdir>  (1447) 
/opt/xchem-fragalysis-2/maxwin/BulkDock/SCRATCH/511017/C87638-P97

>  <fragmenstein_runtime>  (1447) 
10.00627613067627

>  <fragmenstein_outcome>  (1447) 
too moved

>  <fragmenstein_mode>  (1447) 
expansion

>  <fragmenstein_error>  (1447) 


$$$$
C87638-P27
     RDKit          3D

 47 48  0  0  0  0  0  0  0  0999 V2000
   12.0284    1.6279   15.8072 C   0  0  0  0  0  0  0  0  0  0  0  0
   13.1637    0.8610   16.4458 C   0  0  0  0  0  0  0  0  0  0  0  0
   12.9519   -0.6667   16.6051 C   0  0  0  0  0  0  0  0  0  0  0  0
   12.5834   -1.3143   15.2588 C   0  0  0  0  0  0  0  0  0  0  0  0
   12.0276   -2.7244   15.3390 C   0  0  0  0  0  0  0  0  0  0  0  0
   14.2224   -1.1451   17.3718 C   0  0  0  0  0  0  0  0  0  0  0  0
   15.1372   -0.4260   17.4806 O   0  0  0  0  0  0  0  0  0  0  0  0
   14.0001   -2.5773   17.9221 N   0  0  0  0  0  0  0  0  0  0  0  0
   14.8148   -3.3795   18.7953 C   0  0  0  0  0  0  0  0  0  0  0  0
   15.4970   -2.6425   19.9452 C   0  0  0  0  0  0  0  0  0  0  0  0
   17.0253   -2.5113   19.8284 C   0  0  0  0  0  0  0  0  0  0  0  0
   17.4471   -2.0238   18.5426 N   0  0  0  0  0  0  0  0  0  0  0  0
   17.8449   -0.5910   18.0865 C   0  0  0  0  0  0  0  0  0  0  0  0
   17.9646    0.3959   18.7051 O   0  0  0  0  0  0  0  0  0  0  0  0
   18.1038   -0.5993   16.5713 C   0  0  0  0  0  0  0  0  0  0  0  0
   17.2070   -1.4367   15.7964 N   0  0  0  0  0  0  0  0  0  0  0  0
   16.2084   -1.0846   14.9459 C   0  0  0  0  0  0  0  0  0  0  0  0
   15.5847   -2.1658   14.5378 N   0  0  0  0  0  0  0  0  0  0  0  0
   16.3033   -3.1714   15.1035 C   0  0  0  0  0  0  0  0  0  0  0  0
   17.3300   -2.7837   15.8616 N   0  0  0  0  0  0  0  0  0  0  0  0
   15.4877   -4.6116   18.2145 C   0  0  0  0  0  0  0  0  0  0  0  0
   14.3097   -4.7648   19.1150 C   0  0  0  0  0  0  0  0  0  0  0  0
   12.1682    2.7033   15.9606 H   0  0  0  0  0  0  0  0  0  0  0  0
   11.0573    1.3518   16.2257 H   0  0  0  0  0  0  0  0  0  0  0  0
   11.9938    1.4633   14.7257 H   0  0  0  0  0  0  0  0  0  0  0  0
   14.0681    1.0626   15.8578 H   0  0  0  0  0  0  0  0  0  0  0  0
   13.3352    1.3006   17.4381 H   0  0  0  0  0  0  0  0  0  0  0  0
   12.1023   -0.8140   17.2620 H   0  0  0  0  0  0  0  0  0  0  0  0
   11.7901   -0.7263   14.7837 H   0  0  0  0  0  0  0  0  0  0  0  0
   13.4189   -1.2809   14.5620 H   0  0  0  0  0  0  0  0  0  0  0  0
   12.7805   -3.4343   15.6852 H   0  0  0  0  0  0  0  0  0  0  0  0
   11.6914   -3.0527   14.3500 H   0  0  0  0  0  0  0  0  0  0  0  0
   11.1708   -2.7696   16.0130 H   0  0  0  0  0  0  0  0  0  0  0  0
   13.0573   -2.8790   17.7088 H   0  0  0  0  0  0  0  0  0  0  0  0
   15.0686   -1.6351   20.0258 H   0  0  0  0  0  0  0  0  0  0  0  0
   15.2642   -3.1303   20.9000 H   0  0  0  0  0  0  0  0  0  0  0  0
   17.5107   -3.4793   19.9833 H   0  0  0  0  0  0  0  0  0  0  0  0
   17.3922   -1.8199   20.5938 H   0  0  0  0  0  0  0  0  0  0  0  0
   17.3584   -2.6302   17.7247 H   0  0  0  0  0  0  0  0  0  0  0  0
   18.0010    0.4231   16.1915 H   0  0  0  0  0  0  0  0  0  0  0  0
   19.1269   -0.9423   16.3862 H   0  0  0  0  0  0  0  0  0  0  0  0
   15.9619   -0.0609   14.7032 H   0  0  0  0  0  0  0  0  0  0  0  0
   16.1018   -4.2203   14.9493 H   0  0  0  0  0  0  0  0  0  0  0  0
   15.3547   -4.7921   17.1568 H   0  0  0  0  0  0  0  0  0  0  0  0
   16.4487   -4.9399   18.5896 H   0  0  0  0  0  0  0  0  0  0  0  0
   13.3454   -5.0346   18.7035 H   0  0  0  0  0  0  0  0  0  0  0  0
   14.4763   -5.1664   20.1086 H   0  0  0  0  0  0  0  0  0  0  0  0
  1  2  1  0
  2  3  1  0
  3  4  1  0
  4  5  1  0
  3  6  1  0
  6  7  2  0
  6  8  1  0
  8  9  1  0
  9 10  1  0
 10 11  1  0
 11 12  1  0
 12 13  1  0
 13 14  2  0
 13 15  1  0
 15 16  1  0
 16 17  1  0
 17 18  2  0
 18 19  1  0
 19 20  2  0
  9 21  1  0
 21 22  1  0
 22  9  1  0
 20 16  1  0
  1 23  1  0
  1 24  1  0
  1 25  1  0
  2 26  1  0
  2 27  1  0
  3 28  1  0
  4 29  1  0
  4 30  1  0
  5 31  1  0
  5 32  1  0
  5 33  1  0
  8 34  1  0
 10 35  1  0
 10 36  1  0
 11 37  1  0
 11 38  1  0
 12 39  1  0
 15 40  1  0
 15 41  1  0
 17 42  1  0
 19 43  1  0
 21 44  1  0
 21 45  1  0
 22 46  1  0
 22 47  1  0
M  END
>  <Energy>  (1448) 
47.241003691315861

>  <compound_id>  (1448) 
87638

>  <target_id>  (1448) 
1

>  <reference_id>  (1448) 
27

>  <inspiration_ids>  (1448) 
[97, 27]

>  <energy_score>  (1448) 
16.33597860020285

>  <distance_score>  (1448) 
2.3876335343316426

>  <path>  (1448) 
/opt/xchem-fragalysis-2/maxwin/BulkDock/SCRATCH/511017/C87638-P27/C87638-P27.minimised.mol

>  <scratch_subdir>  (1448) 
/opt/xchem-fragalysis-2/maxwin/BulkDock/SCRATCH/511017/C87638-P27

>  <fragmenstein_runtime>  (1448) 
9.78941535949707

>  <fragmenstein_outcome>  (1448) 
too moved

>  <fragmenstein_mode>  (1448) 
expansion

>  <fragmenstein_error>  (1448) 


$$$$
C80536-P97
     RDKit          3D

 50 51  0  0  0  0  0  0  0  0999 V2000
   14.4215    4.4926   13.3618 C   0  0  0  0  0  0  0  0  0  0  0  0
   13.7543    3.1809   13.7568 C   0  0  0  0  0  0  0  0  0  0  0  0
   12.3089    3.3731   14.2548 C   0  0  0  0  0  0  0  0  0  0  0  0
   11.3062    3.6037   13.1121 C   0  0  0  0  0  0  0  0  0  0  0  0
   10.0264    4.2621   13.6146 C   0  0  0  0  0  0  0  0  0  0  0  0
   11.8665    2.2112   15.1741 C   0  0  0  0  0  0  0  0  0  0  0  0
   11.4669    2.4129   16.2537 O   0  0  0  0  0  0  0  0  0  0  0  0
   12.0644    0.8733   14.4071 N   0  0  0  0  0  0  0  0  0  0  0  0
   11.8985   -0.5071   14.8517 C   0  0  0  0  0  0  0  0  0  0  0  0
   12.6566   -1.5681   14.0250 C   0  0  0  0  0  0  0  0  0  0  0  0
   13.8240   -1.4813   15.0393 C   0  0  0  0  0  0  0  0  0  0  0  0
   15.0314   -0.6058   14.6800 C   0  0  0  0  0  0  0  0  0  0  0  0
   16.0399   -1.3940   13.8372 C   0  0  0  0  0  0  0  0  0  0  0  0
   16.5158   -2.5631   14.5358 N   0  0  0  0  0  0  0  0  0  0  0  0
   17.1119   -2.7125   15.9659 C   0  0  0  0  0  0  0  0  0  0  0  0
   17.3784   -1.9007   16.7633 O   0  0  0  0  0  0  0  0  0  0  0  0
   17.2442   -4.2004   16.2613 C   0  0  0  0  0  0  0  0  0  0  0  0
   16.6639   -4.5558   17.5442 N   0  0  0  0  0  0  0  0  0  0  0  0
   15.5300   -4.0893   18.1389 C   0  0  0  0  0  0  0  0  0  0  0  0
   15.2935   -4.7744   19.2350 N   0  0  0  0  0  0  0  0  0  0  0  0
   16.3393   -5.6525   19.2791 C   0  0  0  0  0  0  0  0  0  0  0  0
   17.1818   -5.5834   18.2462 N   0  0  0  0  0  0  0  0  0  0  0  0
   12.8202   -0.8730   16.0347 C   0  0  0  0  0  0  0  0  0  0  0  0
   15.4551    4.3086   13.0512 H   0  0  0  0  0  0  0  0  0  0  0  0
   14.4429    5.1912   14.2043 H   0  0  0  0  0  0  0  0  0  0  0  0
   13.9032    4.9741   12.5279 H   0  0  0  0  0  0  0  0  0  0  0  0
   14.3576    2.7185   14.5476 H   0  0  0  0  0  0  0  0  0  0  0  0
   13.7839    2.5027   12.8962 H   0  0  0  0  0  0  0  0  0  0  0  0
   12.3115    4.2649   14.8985 H   0  0  0  0  0  0  0  0  0  0  0  0
   11.0497    2.6630   12.6125 H   0  0  0  0  0  0  0  0  0  0  0  0
   11.7407    4.2579   12.3486 H   0  0  0  0  0  0  0  0  0  0  0  0
    9.3354    4.4330   12.7839 H   0  0  0  0  0  0  0  0  0  0  0  0
    9.5213    3.6381   14.3570 H   0  0  0  0  0  0  0  0  0  0  0  0
   10.2412    5.2326   14.0737 H   0  0  0  0  0  0  0  0  0  0  0  0
   12.3534    1.0677   13.4568 H   0  0  0  0  0  0  0  0  0  0  0  0
   10.8411   -0.7354   15.0191 H   0  0  0  0  0  0  0  0  0  0  0  0
   12.1576   -2.5445   14.0114 H   0  0  0  0  0  0  0  0  0  0  0  0
   12.9123   -1.2956   12.9990 H   0  0  0  0  0  0  0  0  0  0  0  0
   14.1421   -2.4696   15.3935 H   0  0  0  0  0  0  0  0  0  0  0  0
   14.7237    0.2868   14.1278 H   0  0  0  0  0  0  0  0  0  0  0  0
   15.5164   -0.2623   15.6011 H   0  0  0  0  0  0  0  0  0  0  0  0
   16.9089   -0.7659   13.6191 H   0  0  0  0  0  0  0  0  0  0  0  0
   15.5957   -1.7282   12.8945 H   0  0  0  0  0  0  0  0  0  0  0  0
   16.3330   -3.4852   14.1451 H   0  0  0  0  0  0  0  0  0  0  0  0
   18.3110   -4.4469   16.2872 H   0  0  0  0  0  0  0  0  0  0  0  0
   16.7517   -4.8348   15.5201 H   0  0  0  0  0  0  0  0  0  0  0  0
   14.9314   -3.2772   17.7505 H   0  0  0  0  0  0  0  0  0  0  0  0
   16.4781   -6.3733   20.0750 H   0  0  0  0  0  0  0  0  0  0  0  0
   13.1931   -0.0482   16.6484 H   0  0  0  0  0  0  0  0  0  0  0  0
   12.3840   -1.6264   16.6986 H   0  0  0  0  0  0  0  0  0  0  0  0
  1  2  1  0
  2  3  1  0
  3  4  1  0
  4  5  1  0
  3  6  1  0
  6  7  2  0
  6  8  1  0
  8  9  1  0
  9 10  1  0
 10 11  1  0
 11 12  1  0
 12 13  1  0
 13 14  1  0
 14 15  1  0
 15 16  2  0
 15 17  1  0
 17 18  1  0
 18 19  1  0
 19 20  2  0
 20 21  1  0
 21 22  2  0
 11 23  1  0
 23  9  1  0
 22 18  1  0
  1 24  1  0
  1 25  1  0
  1 26  1  0
  2 27  1  0
  2 28  1  0
  3 29  1  0
  4 30  1  0
  4 31  1  0
  5 32  1  0
  5 33  1  0
  5 34  1  0
  8 35  1  0
  9 36  1  0
 10 37  1  0
 10 38  1  0
 11 39  1  0
 12 40  1  0
 12 41  1  0
 13 42  1  0
 13 43  1  0
 14 44  1  0
 17 45  1  0
 17 46  1  0
 19 47  1  0
 21 48  1  0
 23 49  1  0
 23 50  1  0
M  END
>  <Energy>  (1449) 
35.615597748984072

>  <compound_id>  (1449) 
80536

>  <target_id>  (1449) 
1

>  <reference_id>  (1449) 
97

>  <inspiration_ids>  (1449) 
[97, 27]

>  <energy_score>  (1449) 
-13.98458464037347

>  <distance_score>  (1449) 
2.347294947702672

>  <path>  (1449) 
/opt/xchem-fragalysis-2/maxwin/BulkDock/SCRATCH/511017/C80536-P97/C80536-P97.minimised.mol

>  <scratch_subdir>  (1449) 
/opt/xchem-fragalysis-2/maxwin/BulkDock/SCRATCH/511017/C80536-P97

>  <fragmenstein_runtime>  (1449) 
171.03968930244446

>  <fragmenstein_outcome>  (1449) 
too moved

>  <fragmenstein_mode>  (1449) 
expansion

>  <fragmenstein_error>  (1449) 


$$$$
C80536-P27
     RDKit          3D

 50 51  0  0  0  0  0  0  0  0999 V2000
   12.7841    4.1684   16.9823 C   0  0  0  0  0  0  0  0  0  0  0  0
   11.7092    4.4635   15.9418 C   0  0  0  0  0  0  0  0  0  0  0  0
   11.6522    3.3763   14.8550 C   0  0  0  0  0  0  0  0  0  0  0  0
   10.8803    3.8128   13.5972 C   0  0  0  0  0  0  0  0  0  0  0  0
    9.5524    4.5067   13.8731 C   0  0  0  0  0  0  0  0  0  0  0  0
   11.0495    2.0613   15.4047 C   0  0  0  0  0  0  0  0  0  0  0  0
   10.2151    2.0299   16.2225 O   0  0  0  0  0  0  0  0  0  0  0  0
   11.8124    0.9025   14.6974 N   0  0  0  0  0  0  0  0  0  0  0  0
   11.7684   -0.5420   14.9259 C   0  0  0  0  0  0  0  0  0  0  0  0
   12.7394   -1.3669   14.0547 C   0  0  0  0  0  0  0  0  0  0  0  0
   13.7921   -1.2814   15.1949 C   0  0  0  0  0  0  0  0  0  0  0  0
   14.9005   -0.2302   15.0468 C   0  0  0  0  0  0  0  0  0  0  0  0
   15.6841   -0.0186   16.3420 C   0  0  0  0  0  0  0  0  0  0  0  0
   16.3442   -1.1932   16.8579 N   0  0  0  0  0  0  0  0  0  0  0  0
   16.9837   -2.4014   16.1139 C   0  0  0  0  0  0  0  0  0  0  0  0
   17.0038   -2.6645   14.9758 O   0  0  0  0  0  0  0  0  0  0  0  0
   17.6602   -3.2784   17.1492 C   0  0  0  0  0  0  0  0  0  0  0  0
   16.7643   -4.1151   17.9198 N   0  0  0  0  0  0  0  0  0  0  0  0
   15.4067   -4.1369   17.9941 C   0  0  0  0  0  0  0  0  0  0  0  0
   15.0287   -5.0069   18.9051 N   0  0  0  0  0  0  0  0  0  0  0  0
   16.2140   -5.4993   19.3729 C   0  0  0  0  0  0  0  0  0  0  0  0
   17.3020   -4.9805   18.8041 N   0  0  0  0  0  0  0  0  0  0  0  0
   12.6095   -0.9844   16.1471 C   0  0  0  0  0  0  0  0  0  0  0  0
   12.7872    4.9463   17.7523 H   0  0  0  0  0  0  0  0  0  0  0  0
   13.7770    4.1464   16.5214 H   0  0  0  0  0  0  0  0  0  0  0  0
   12.6163    3.2050   17.4727 H   0  0  0  0  0  0  0  0  0  0  0  0
   11.9379    5.4329   15.4828 H   0  0  0  0  0  0  0  0  0  0  0  0
   10.7435    4.5641   16.4507 H   0  0  0  0  0  0  0  0  0  0  0  0
   12.6878    3.1854   14.5451 H   0  0  0  0  0  0  0  0  0  0  0  0
   10.7001    2.9427   12.9550 H   0  0  0  0  0  0  0  0  0  0  0  0
   11.5082    4.5012   13.0179 H   0  0  0  0  0  0  0  0  0  0  0  0
    9.0073    4.6604   12.9365 H   0  0  0  0  0  0  0  0  0  0  0  0
    8.9208    3.9183   14.5433 H   0  0  0  0  0  0  0  0  0  0  0  0
    9.7058    5.4910   14.3262 H   0  0  0  0  0  0  0  0  0  0  0  0
   12.5320    1.2875   14.0968 H   0  0  0  0  0  0  0  0  0  0  0  0
   10.7368   -0.9068   14.9307 H   0  0  0  0  0  0  0  0  0  0  0  0
   12.3832   -2.3858   13.8599 H   0  0  0  0  0  0  0  0  0  0  0  0
   13.0369   -0.9195   13.1022 H   0  0  0  0  0  0  0  0  0  0  0  0
   14.2386   -2.2641   15.3881 H   0  0  0  0  0  0  0  0  0  0  0  0
   15.5814   -0.5407   14.2458 H   0  0  0  0  0  0  0  0  0  0  0  0
   14.4889    0.7357   14.7399 H   0  0  0  0  0  0  0  0  0  0  0  0
   16.4653    0.7302   16.1741 H   0  0  0  0  0  0  0  0  0  0  0  0
   15.0335    0.3561   17.1381 H   0  0  0  0  0  0  0  0  0  0  0  0
   16.5875   -1.2337   17.8435 H   0  0  0  0  0  0  0  0  0  0  0  0
   18.2329   -2.6629   17.8514 H   0  0  0  0  0  0  0  0  0  0  0  0
   18.3626   -3.9445   16.6346 H   0  0  0  0  0  0  0  0  0  0  0  0
   14.7492   -3.5290   17.3886 H   0  0  0  0  0  0  0  0  0  0  0  0
   16.2828   -6.2552   20.1452 H   0  0  0  0  0  0  0  0  0  0  0  0
   12.7796   -0.2265   16.9158 H   0  0  0  0  0  0  0  0  0  0  0  0
   12.2183   -1.8850   16.6355 H   0  0  0  0  0  0  0  0  0  0  0  0
  1  2  1  0
  2  3  1  0
  3  4  1  0
  4  5  1  0
  3  6  1  0
  6  7  2  0
  6  8  1  0
  8  9  1  0
  9 10  1  0
 10 11  1  0
 11 12  1  0
 12 13  1  0
 13 14  1  0
 14 15  1  0
 15 16  2  0
 15 17  1  0
 17 18  1  0
 18 19  1  0
 19 20  2  0
 20 21  1  0
 21 22  2  0
 11 23  1  0
 23  9  1  0
 22 18  1  0
  1 24  1  0
  1 25  1  0
  1 26  1  0
  2 27  1  0
  2 28  1  0
  3 29  1  0
  4 30  1  0
  4 31  1  0
  5 32  1  0
  5 33  1  0
  5 34  1  0
  8 35  1  0
  9 36  1  0
 10 37  1  0
 10 38  1  0
 11 39  1  0
 12 40  1  0
 12 41  1  0
 13 42  1  0
 13 43  1  0
 14 44  1  0
 17 45  1  0
 17 46  1  0
 19 47  1  0
 21 48  1  0
 23 49  1  0
 23 50  1  0
M  END
>  <Energy>  (1450) 
35.026616491604905

>  <compound_id>  (1450) 
80536

>  <target_id>  (1450) 
1

>  <reference_id>  (1450) 
27

>  <inspiration_ids>  (1450) 
[97, 27]

>  <energy_score>  (1450) 
-14.573565897751209

>  <distance_score>  (1450) 
2.4389656631103507

>  <path>  (1450) 
/opt/xchem-fragalysis-2/maxwin/BulkDock/SCRATCH/511017/C80536-P27/C80536-P27.minimised.mol

>  <scratch_subdir>  (1450) 
/opt/xchem-fragalysis-2/maxwin/BulkDock/SCRATCH/511017/C80536-P27

>  <fragmenstein_runtime>  (1450) 
172.27789449691772

>  <fragmenstein_outcome>  (1450) 
too moved

>  <fragmenstein_mode>  (1450) 
expansion

>  <fragmenstein_error>  (1450) 


$$$$
C31631-P55
     RDKit          3D

 45 48  0  0  0  0  0  0  0  0999 V2000
   -1.3278   -5.4634   22.8713 O   0  0  0  0  0  0  0  0  0  0  0  0
   -1.3122   -5.6887   21.6919 C   0  0  0  0  0  0  0  0  0  0  0  0
   -2.4058   -6.6653   21.0861 C   0  0  0  0  0  0  0  0  0  0  0  0
   -3.3678   -7.4946   21.9893 C   0  0  0  0  0  0  0  0  0  0  0  0
   -4.6735   -7.8592   21.5643 C   0  0  0  0  0  0  0  0  0  0  0  0
   -5.5380   -8.8001   22.2667 C   0  0  0  0  0  0  0  0  0  0  0  0
   -5.1234   -9.4864   23.4196 C   0  0  0  0  0  0  0  0  0  0  0  0
   -5.9223  -10.5774   24.0532 N   0  0  0  0  0  0  0  0  0  0  0  0
   -5.5077  -11.5870   24.9311 C   0  0  0  0  0  0  0  0  0  0  0  0
   -6.5874  -12.3983   25.1933 C   0  0  0  0  0  0  0  0  0  0  0  0
   -7.6734  -11.9696   24.4939 N   0  0  0  0  0  0  0  0  0  0  0  0
   -7.2526  -10.9113   23.8202 C   0  0  0  0  0  0  0  0  0  0  0  0
   -3.8357   -9.0977   23.8444 C   0  0  0  0  0  0  0  0  0  0  0  0
   -3.0009   -8.1173   23.1767 C   0  0  0  0  0  0  0  0  0  0  0  0
   -0.4371   -5.1535   20.6189 N   0  0  0  0  0  0  0  0  0  0  0  0
    0.6286   -4.0959   20.6567 C   0  0  0  0  0  0  0  0  0  0  0  0
    1.6918   -4.0898   19.5003 C   0  0  0  0  0  0  0  0  0  0  0  0
    2.7170   -2.9612   19.4664 C   0  0  0  0  0  0  0  0  0  0  0  0
    3.0211   -2.1923   18.4301 N   0  0  0  0  0  0  0  0  0  0  0  0
    4.0896   -1.4083   18.8174 C   0  0  0  0  0  0  0  0  0  0  0  0
    4.7997   -0.4201   18.1126 C   0  0  0  0  0  0  0  0  0  0  0  0
    5.8749    0.2195   18.7450 C   0  0  0  0  0  0  0  0  0  0  0  0
    6.2390   -0.1245   20.0500 C   0  0  0  0  0  0  0  0  0  0  0  0
    5.5574   -1.1182   20.7608 C   0  0  0  0  0  0  0  0  0  0  0  0
    4.4785   -1.7247   20.1114 C   0  0  0  0  0  0  0  0  0  0  0  0
    3.5661   -2.6733   20.5091 N   0  0  0  0  0  0  0  0  0  0  0  0
   -1.8764   -7.3892   20.4536 H   0  0  0  0  0  0  0  0  0  0  0  0
   -3.0291   -6.0390   20.4347 H   0  0  0  0  0  0  0  0  0  0  0  0
   -5.0571   -7.4428   20.6315 H   0  0  0  0  0  0  0  0  0  0  0  0
   -6.5016   -9.0165   21.8100 H   0  0  0  0  0  0  0  0  0  0  0  0
   -4.4744  -11.7066   25.2068 H   0  0  0  0  0  0  0  0  0  0  0  0
   -6.6225  -13.2789   25.8204 H   0  0  0  0  0  0  0  0  0  0  0  0
   -7.8683  -10.3282   23.1512 H   0  0  0  0  0  0  0  0  0  0  0  0
   -3.3733   -9.5702   24.6945 H   0  0  0  0  0  0  0  0  0  0  0  0
   -2.0304   -7.8758   23.6055 H   0  0  0  0  0  0  0  0  0  0  0  0
   -0.7602   -5.5002   19.7218 H   0  0  0  0  0  0  0  0  0  0  0  0
    0.0927   -3.1398   20.6557 H   0  0  0  0  0  0  0  0  0  0  0  0
    1.1208   -4.1775   21.6311 H   0  0  0  0  0  0  0  0  0  0  0  0
    2.2294   -5.0441   19.5133 H   0  0  0  0  0  0  0  0  0  0  0  0
    1.1457   -4.0685   18.5483 H   0  0  0  0  0  0  0  0  0  0  0  0
    4.5048   -0.1644   17.1007 H   0  0  0  0  0  0  0  0  0  0  0  0
    6.4101    1.0075   18.2207 H   0  0  0  0  0  0  0  0  0  0  0  0
    7.0360    0.4196   20.5497 H   0  0  0  0  0  0  0  0  0  0  0  0
    5.8217   -1.3642   21.7833 H   0  0  0  0  0  0  0  0  0  0  0  0
    3.5261   -3.1132   21.4137 H   0  0  0  0  0  0  0  0  0  0  0  0
  1  2  2  0
  2  3  1  0
  3  4  1  0
  4  5  2  0
  5  6  1  0
  6  7  2  0
  7  8  1  0
  8  9  1  0
  9 10  2  0
 10 11  1  0
 11 12  2  0
  7 13  1  0
 13 14  2  0
  2 15  1  0
 15 16  1  0
 16 17  1  0
 17 18  1  0
 18 19  2  0
 19 20  1  0
 20 21  2  0
 21 22  1  0
 22 23  2  0
 23 24  1  0
 24 25  2  0
 25 26  1  0
 14  4  1  0
 26 18  1  0
 12  8  1  0
 25 20  1  0
  3 27  1  0
  3 28  1  0
  5 29  1  0
  6 30  1  0
  9 31  1  0
 10 32  1  0
 12 33  1  0
 13 34  1  0
 14 35  1  0
 15 36  1  0
 16 37  1  0
 16 38  1  0
 17 39  1  0
 17 40  1  0
 21 41  1  0
 22 42  1  0
 23 43  1  0
 24 44  1  0
 26 45  1  0
M  END
>  <Energy>  (1451) 
89.34321011137466

>  <compound_id>  (1451) 
31631

>  <target_id>  (1451) 
1

>  <reference_id>  (1451) 
55

>  <inspiration_ids>  (1451) 
[55, 35]

>  <energy_score>  (1451) 
-0.1347369930037985

>  <distance_score>  (1451) 
15.377993187447705

>  <path>  (1451) 
/opt/xchem-fragalysis-2/maxwin/BulkDock/SCRATCH/511017/C31631-P55/C31631-P55.minimised.mol

>  <scratch_subdir>  (1451) 
/opt/xchem-fragalysis-2/maxwin/BulkDock/SCRATCH/511017/C31631-P55

>  <fragmenstein_runtime>  (1451) 
31.176570415496826

>  <fragmenstein_outcome>  (1451) 
too moved

>  <fragmenstein_mode>  (1451) 
expansion

>  <fragmenstein_error>  (1451) 


$$$$
C31631-P35
     RDKit          3D

 45 48  0  0  0  0  0  0  0  0999 V2000
    4.9161   -5.5227   18.2719 O   0  0  0  0  0  0  0  0  0  0  0  0
    5.6442   -6.4891   18.2471 C   0  0  0  0  0  0  0  0  0  0  0  0
    5.1550   -7.5978   16.8739 C   0  0  0  0  0  0  0  0  0  0  0  0
    4.7417   -9.1464   16.6026 C   0  0  0  0  0  0  0  0  0  0  0  0
    3.4671   -9.4700   16.0793 C   0  0  0  0  0  0  0  0  0  0  0  0
    3.0319  -10.8291   15.7549 C   0  0  0  0  0  0  0  0  0  0  0  0
    3.7851  -11.9747   16.0856 C   0  0  0  0  0  0  0  0  0  0  0  0
    3.2469  -13.3426   16.1769 N   0  0  0  0  0  0  0  0  0  0  0  0
    3.7583  -14.3997   16.9196 C   0  0  0  0  0  0  0  0  0  0  0  0
    2.8112  -15.4011   16.9093 C   0  0  0  0  0  0  0  0  0  0  0  0
    1.6983  -15.0083   16.2303 N   0  0  0  0  0  0  0  0  0  0  0  0
    2.0118  -13.8253   15.7377 C   0  0  0  0  0  0  0  0  0  0  0  0
    5.1013  -11.6761   16.4086 C   0  0  0  0  0  0  0  0  0  0  0  0
    5.5651  -10.3109   16.5542 C   0  0  0  0  0  0  0  0  0  0  0  0
    7.0596   -6.7700   19.2587 N   0  0  0  0  0  0  0  0  0  0  0  0
    7.8330   -5.7665   20.4132 C   0  0  0  0  0  0  0  0  0  0  0  0
    8.3219   -5.8787   21.9196 C   0  0  0  0  0  0  0  0  0  0  0  0
    9.8320   -5.7543   22.0299 C   0  0  0  0  0  0  0  0  0  0  0  0
   10.5086   -4.6672   21.7341 N   0  0  0  0  0  0  0  0  0  0  0  0
   11.8255   -5.0474   21.6151 C   0  0  0  0  0  0  0  0  0  0  0  0
   12.9444   -4.3576   21.1197 C   0  0  0  0  0  0  0  0  0  0  0  0
   14.1847   -4.9980   21.0823 C   0  0  0  0  0  0  0  0  0  0  0  0
   14.3160   -6.3009   21.5576 C   0  0  0  0  0  0  0  0  0  0  0  0
   13.2131   -7.0117   22.0524 C   0  0  0  0  0  0  0  0  0  0  0  0
   11.9784   -6.3581   22.0389 C   0  0  0  0  0  0  0  0  0  0  0  0
   10.7037   -6.7595   22.3691 N   0  0  0  0  0  0  0  0  0  0  0  0
    5.7240   -7.2685   16.0021 H   0  0  0  0  0  0  0  0  0  0  0  0
    4.1754   -7.1213   16.6875 H   0  0  0  0  0  0  0  0  0  0  0  0
    2.7487   -8.6703   15.8949 H   0  0  0  0  0  0  0  0  0  0  0  0
    2.0354  -10.9231   15.3311 H   0  0  0  0  0  0  0  0  0  0  0  0
    4.7204  -14.3405   17.4075 H   0  0  0  0  0  0  0  0  0  0  0  0
    2.8897  -16.3850   17.3435 H   0  0  0  0  0  0  0  0  0  0  0  0
    1.3792  -13.2371   15.0867 H   0  0  0  0  0  0  0  0  0  0  0  0
    5.8346  -12.4655   16.5580 H   0  0  0  0  0  0  0  0  0  0  0  0
    6.6439  -10.2695   16.6569 H   0  0  0  0  0  0  0  0  0  0  0  0
    7.4088   -7.6565   19.0913 H   0  0  0  0  0  0  0  0  0  0  0  0
    8.8394   -6.0364   20.0627 H   0  0  0  0  0  0  0  0  0  0  0  0
    7.6238   -4.7210   20.1662 H   0  0  0  0  0  0  0  0  0  0  0  0
    7.8734   -6.6847   22.4850 H   0  0  0  0  0  0  0  0  0  0  0  0
    8.0106   -4.9843   22.4742 H   0  0  0  0  0  0  0  0  0  0  0  0
   12.8438   -3.3466   20.7519 H   0  0  0  0  0  0  0  0  0  0  0  0
   15.0511   -4.4650   20.6997 H   0  0  0  0  0  0  0  0  0  0  0  0
   15.2937   -6.7791   21.5389 H   0  0  0  0  0  0  0  0  0  0  0  0
   13.3210   -8.0313   22.4061 H   0  0  0  0  0  0  0  0  0  0  0  0
   10.4561   -7.6763   22.7073 H   0  0  0  0  0  0  0  0  0  0  0  0
  1  2  2  0
  2  3  1  0
  3  4  1  0
  4  5  2  0
  5  6  1  0
  6  7  2  0
  7  8  1  0
  8  9  1  0
  9 10  2  0
 10 11  1  0
 11 12  2  0
  7 13  1  0
 13 14  2  0
  2 15  1  0
 15 16  1  0
 16 17  1  0
 17 18  1  0
 18 19  2  0
 19 20  1  0
 20 21  2  0
 21 22  1  0
 22 23  2  0
 23 24  1  0
 24 25  2  0
 25 26  1  0
 14  4  1  0
 26 18  1  0
 12  8  1  0
 25 20  1  0
  3 27  1  0
  3 28  1  0
  5 29  1  0
  6 30  1  0
  9 31  1  0
 10 32  1  0
 12 33  1  0
 13 34  1  0
 14 35  1  0
 15 36  1  0
 16 37  1  0
 16 38  1  0
 17 39  1  0
 17 40  1  0
 21 41  1  0
 22 42  1  0
 23 43  1  0
 24 44  1  0
 26 45  1  0
M  END
>  <Energy>  (1452) 
241.95621327150943

>  <compound_id>  (1452) 
31631

>  <target_id>  (1452) 
1

>  <reference_id>  (1452) 
35

>  <inspiration_ids>  (1452) 
[55, 35]

>  <energy_score>  (1452) 
152.4782661671303

>  <distance_score>  (1452) 
15.778038273670273

>  <path>  (1452) 
/opt/xchem-fragalysis-2/maxwin/BulkDock/SCRATCH/511017/C31631-P35/C31631-P35.minimised.mol

>  <scratch_subdir>  (1452) 
/opt/xchem-fragalysis-2/maxwin/BulkDock/SCRATCH/511017/C31631-P35

>  <fragmenstein_runtime>  (1452) 
18.02782440185547

>  <fragmenstein_outcome>  (1452) 
too moved

>  <fragmenstein_mode>  (1452) 
expansion

>  <fragmenstein_error>  (1452) 


$$$$
C31639-P55
     RDKit          3D

 44 47  0  0  0  0  0  0  0  0999 V2000
    4.2179  -15.3895   30.4801 O   0  0  0  0  0  0  0  0  0  0  0  0
    3.8836  -15.2071   29.3421 C   0  0  0  0  0  0  0  0  0  0  0  0
    4.4829  -14.3894   28.2984 N   0  0  0  0  0  0  0  0  0  0  0  0
    5.6332  -13.4509   28.3387 C   0  0  0  0  0  0  0  0  0  0  0  0
    6.4826  -13.2105   27.0540 C   0  0  0  0  0  0  0  0  0  0  0  0
    7.3161  -11.8213   27.0666 C   0  0  0  0  0  0  0  0  0  0  0  0
    8.2703  -11.4337   25.9932 N   0  0  0  0  0  0  0  0  0  0  0  0
    8.8899  -12.3007   25.1287 C   0  0  0  0  0  0  0  0  0  0  0  0
    9.8340  -11.7356   24.4079 N   0  0  0  0  0  0  0  0  0  0  0  0
    9.8689  -10.4302   24.8078 C   0  0  0  0  0  0  0  0  0  0  0  0
   10.7312   -9.4058   24.3659 C   0  0  0  0  0  0  0  0  0  0  0  0
   10.6035   -8.1314   24.9125 C   0  0  0  0  0  0  0  0  0  0  0  0
    9.6390   -7.8988   25.8904 C   0  0  0  0  0  0  0  0  0  0  0  0
    8.7569   -8.9086   26.3353 C   0  0  0  0  0  0  0  0  0  0  0  0
    8.8887  -10.1897   25.7795 C   0  0  0  0  0  0  0  0  0  0  0  0
    2.5666  -15.9612   29.0209 C   0  0  0  0  0  0  0  0  0  0  0  0
    1.6136  -15.5625   28.0846 C   0  0  0  0  0  0  0  0  0  0  0  0
    0.4120  -16.2773   27.9886 C   0  0  0  0  0  0  0  0  0  0  0  0
    0.0854  -17.3478   28.7485 N   0  0  0  0  0  0  0  0  0  0  0  0
    0.9933  -17.7349   29.6762 C   0  0  0  0  0  0  0  0  0  0  0  0
    0.6589  -18.8508   30.4934 N   0  0  0  0  0  0  0  0  0  0  0  0
   -0.5005  -19.5925   30.4002 C   0  0  0  0  0  0  0  0  0  0  0  0
   -0.4158  -20.5565   31.3740 C   0  0  0  0  0  0  0  0  0  0  0  0
    0.7632  -20.4497   32.0575 N   0  0  0  0  0  0  0  0  0  0  0  0
    1.3825  -19.4222   31.5151 C   0  0  0  0  0  0  0  0  0  0  0  0
    2.2193  -17.0728   29.8365 C   0  0  0  0  0  0  0  0  0  0  0  0
    3.9781  -14.5376   27.4304 H   0  0  0  0  0  0  0  0  0  0  0  0
    5.2187  -12.4991   28.6868 H   0  0  0  0  0  0  0  0  0  0  0  0
    6.2924  -13.7983   29.1428 H   0  0  0  0  0  0  0  0  0  0  0  0
    7.1957  -14.0382   26.9564 H   0  0  0  0  0  0  0  0  0  0  0  0
    5.8720  -13.2448   26.1533 H   0  0  0  0  0  0  0  0  0  0  0  0
    6.5976  -10.9961   27.1224 H   0  0  0  0  0  0  0  0  0  0  0  0
    7.9185  -11.8021   27.9835 H   0  0  0  0  0  0  0  0  0  0  0  0
    8.6387  -13.3514   25.0875 H   0  0  0  0  0  0  0  0  0  0  0  0
   11.4892   -9.6281   23.6229 H   0  0  0  0  0  0  0  0  0  0  0  0
   11.2702   -7.3332   24.5979 H   0  0  0  0  0  0  0  0  0  0  0  0
    9.5837   -6.9115   26.3462 H   0  0  0  0  0  0  0  0  0  0  0  0
    8.0274   -8.7012   27.1098 H   0  0  0  0  0  0  0  0  0  0  0  0
    1.7603  -14.6941   27.4513 H   0  0  0  0  0  0  0  0  0  0  0  0
   -0.3458  -15.9789   27.2664 H   0  0  0  0  0  0  0  0  0  0  0  0
   -1.2606  -19.3644   29.6668 H   0  0  0  0  0  0  0  0  0  0  0  0
   -1.1412  -21.3223   31.6164 H   0  0  0  0  0  0  0  0  0  0  0  0
    2.3496  -19.0614   31.8358 H   0  0  0  0  0  0  0  0  0  0  0  0
    2.9316  -17.3852   30.5947 H   0  0  0  0  0  0  0  0  0  0  0  0
  1  2  2  0
  2  3  1  0
  3  4  1  0
  4  5  1  0
  5  6  1  0
  6  7  1  0
  7  8  1  0
  8  9  2  0
  9 10  1  0
 10 11  2  0
 11 12  1  0
 12 13  2  0
 13 14  1  0
 14 15  2  0
  2 16  1  0
 16 17  2  0
 17 18  1  0
 18 19  2  0
 19 20  1  0
 20 21  1  0
 21 22  1  0
 22 23  2  0
 23 24  1  0
 24 25  2  0
 20 26  2  0
 15  7  1  0
 26 16  1  0
 15 10  1  0
 25 21  1  0
  3 27  1  0
  4 28  1  0
  4 29  1  0
  5 30  1  0
  5 31  1  0
  6 32  1  0
  6 33  1  0
  8 34  1  0
 11 35  1  0
 12 36  1  0
 13 37  1  0
 14 38  1  0
 17 39  1  0
 18 40  1  0
 22 41  1  0
 23 42  1  0
 25 43  1  0
 26 44  1  0
M  END
>  <Energy>  (1453) 
49.992981164386194

>  <compound_id>  (1453) 
31639

>  <target_id>  (1453) 
1

>  <reference_id>  (1453) 
55

>  <inspiration_ids>  (1453) 
[55, 35]

>  <energy_score>  (1453) 
2.9455366736590918

>  <distance_score>  (1453) 
15.130391356965152

>  <path>  (1453) 
/opt/xchem-fragalysis-2/maxwin/BulkDock/SCRATCH/511017/C31639-P55/C31639-P55.minimised.mol

>  <scratch_subdir>  (1453) 
/opt/xchem-fragalysis-2/maxwin/BulkDock/SCRATCH/511017/C31639-P55

>  <fragmenstein_runtime>  (1453) 
40.43536448478699

>  <fragmenstein_outcome>  (1453) 
too moved

>  <fragmenstein_mode>  (1453) 
expansion

>  <fragmenstein_error>  (1453) 


$$$$
C31639-P35
     RDKit          3D

 44 47  0  0  0  0  0  0  0  0999 V2000
    0.6183  -18.5345   21.8060 O   0  0  0  0  0  0  0  0  0  0  0  0
    0.4776  -17.4537   22.3088 C   0  0  0  0  0  0  0  0  0  0  0  0
    1.1992  -16.2073   22.0939 N   0  0  0  0  0  0  0  0  0  0  0  0
    2.3901  -15.9070   21.2656 C   0  0  0  0  0  0  0  0  0  0  0  0
    2.5361  -14.5353   20.5436 C   0  0  0  0  0  0  0  0  0  0  0  0
    3.9084  -14.4638   19.6610 C   0  0  0  0  0  0  0  0  0  0  0  0
    4.3107  -13.3141   18.8095 N   0  0  0  0  0  0  0  0  0  0  0  0
    3.4816  -12.6718   17.9140 C   0  0  0  0  0  0  0  0  0  0  0  0
    4.0986  -11.7597   17.1901 N   0  0  0  0  0  0  0  0  0  0  0  0
    5.4143  -11.8391   17.5482 C   0  0  0  0  0  0  0  0  0  0  0  0
    6.5082  -11.1238   17.0259 C   0  0  0  0  0  0  0  0  0  0  0  0
    7.7841  -11.3590   17.5406 C   0  0  0  0  0  0  0  0  0  0  0  0
    7.9599  -12.2879   18.5627 C   0  0  0  0  0  0  0  0  0  0  0  0
    6.8770  -13.0203   19.0920 C   0  0  0  0  0  0  0  0  0  0  0  0
    5.5951  -12.7894   18.5652 C   0  0  0  0  0  0  0  0  0  0  0  0
   -0.6250  -17.4919   23.3951 C   0  0  0  0  0  0  0  0  0  0  0  0
   -1.3597  -16.3975   23.8421 C   0  0  0  0  0  0  0  0  0  0  0  0
   -2.3899  -16.6076   24.7654 C   0  0  0  0  0  0  0  0  0  0  0  0
   -2.7425  -17.8094   25.2743 N   0  0  0  0  0  0  0  0  0  0  0  0
   -2.0335  -18.8815   24.8562 C   0  0  0  0  0  0  0  0  0  0  0  0
   -2.3919  -20.1459   25.3965 N   0  0  0  0  0  0  0  0  0  0  0  0
   -1.8403  -21.3853   25.1604 C   0  0  0  0  0  0  0  0  0  0  0  0
   -2.5433  -22.2650   25.9523 C   0  0  0  0  0  0  0  0  0  0  0  0
   -3.5084  -21.6159   26.6706 N   0  0  0  0  0  0  0  0  0  0  0  0
   -3.4060  -20.3553   26.3060 C   0  0  0  0  0  0  0  0  0  0  0  0
   -0.9871  -18.7602   23.9339 C   0  0  0  0  0  0  0  0  0  0  0  0
    0.8655  -15.5135   22.7536 H   0  0  0  0  0  0  0  0  0  0  0  0
    3.2466  -16.0425   21.9359 H   0  0  0  0  0  0  0  0  0  0  0  0
    2.4508  -16.7086   20.5203 H   0  0  0  0  0  0  0  0  0  0  0  0
    1.6803  -14.3688   19.8808 H   0  0  0  0  0  0  0  0  0  0  0  0
    2.5414  -13.7337   21.2860 H   0  0  0  0  0  0  0  0  0  0  0  0
    4.7526  -14.6409   20.3336 H   0  0  0  0  0  0  0  0  0  0  0  0
    3.8831  -15.3088   18.9601 H   0  0  0  0  0  0  0  0  0  0  0  0
    2.4265  -12.9043   17.8515 H   0  0  0  0  0  0  0  0  0  0  0  0
    6.3545  -10.4355   16.2000 H   0  0  0  0  0  0  0  0  0  0  0  0
    8.6402  -10.8428   17.1119 H   0  0  0  0  0  0  0  0  0  0  0  0
    8.9620  -12.4793   18.9427 H   0  0  0  0  0  0  0  0  0  0  0  0
    7.0413  -13.7591   19.8688 H   0  0  0  0  0  0  0  0  0  0  0  0
   -1.1752  -15.3946   23.4738 H   0  0  0  0  0  0  0  0  0  0  0  0
   -2.9828  -15.7695   25.1259 H   0  0  0  0  0  0  0  0  0  0  0  0
   -1.0220  -21.5510   24.4765 H   0  0  0  0  0  0  0  0  0  0  0  0
   -2.4008  -23.3344   26.0400 H   0  0  0  0  0  0  0  0  0  0  0  0
   -4.0302  -19.5433   26.6589 H   0  0  0  0  0  0  0  0  0  0  0  0
   -0.4371  -19.6347   23.5982 H   0  0  0  0  0  0  0  0  0  0  0  0
  1  2  2  0
  2  3  1  0
  3  4  1  0
  4  5  1  0
  5  6  1  0
  6  7  1  0
  7  8  1  0
  8  9  2  0
  9 10  1  0
 10 11  2  0
 11 12  1  0
 12 13  2  0
 13 14  1  0
 14 15  2  0
  2 16  1  0
 16 17  2  0
 17 18  1  0
 18 19  2  0
 19 20  1  0
 20 21  1  0
 21 22  1  0
 22 23  2  0
 23 24  1  0
 24 25  2  0
 20 26  2  0
 15  7  1  0
 26 16  1  0
 15 10  1  0
 25 21  1  0
  3 27  1  0
  4 28  1  0
  4 29  1  0
  5 30  1  0
  5 31  1  0
  6 32  1  0
  6 33  1  0
  8 34  1  0
 11 35  1  0
 12 36  1  0
 13 37  1  0
 14 38  1  0
 17 39  1  0
 18 40  1  0
 22 41  1  0
 23 42  1  0
 25 43  1  0
 26 44  1  0
M  END
>  <Energy>  (1454) 
48.839774532538037

>  <compound_id>  (1454) 
31639

>  <target_id>  (1454) 
1

>  <reference_id>  (1454) 
35

>  <inspiration_ids>  (1454) 
[55, 35]

>  <energy_score>  (1454) 
1.7923300418107146

>  <distance_score>  (1454) 
14.715353107181222

>  <path>  (1454) 
/opt/xchem-fragalysis-2/maxwin/BulkDock/SCRATCH/511017/C31639-P35/C31639-P35.minimised.mol

>  <scratch_subdir>  (1454) 
/opt/xchem-fragalysis-2/maxwin/BulkDock/SCRATCH/511017/C31639-P35

>  <fragmenstein_runtime>  (1454) 
37.44902229309082

>  <fragmenstein_outcome>  (1454) 
too moved

>  <fragmenstein_mode>  (1454) 
expansion

>  <fragmenstein_error>  (1454) 


$$$$
C31640-P55
     RDKit          3D

 44 46  0  0  0  0  0  0  0  0999 V2000
   -0.4180  -17.6845   20.0893 C   0  0  0  0  0  0  0  0  0  0  0  0
   -1.7824  -18.0912   19.8274 C   0  0  0  0  0  0  0  0  0  0  0  0
   -2.1311  -19.3499   19.8040 N   0  0  0  0  0  0  0  0  0  0  0  0
   -3.3385  -19.3414   20.4264 C   0  0  0  0  0  0  0  0  0  0  0  0
   -4.0349  -20.4153   21.0264 C   0  0  0  0  0  0  0  0  0  0  0  0
   -5.2625  -20.2313   21.7032 C   0  0  0  0  0  0  0  0  0  0  0  0
   -5.8495  -21.3903   22.3453 N   0  0  0  0  0  0  0  0  0  0  0  0
   -7.1928  -21.5868   22.9783 C   0  0  0  0  0  0  0  0  0  0  0  0
   -8.1449  -20.8514   23.0377 O   0  0  0  0  0  0  0  0  0  0  0  0
   -7.2656  -23.0852   23.7872 C   0  0  0  0  0  0  0  0  0  0  0  0
   -8.8706  -23.9013   24.0645 C   0  0  0  0  0  0  0  0  0  0  0  0
  -10.3331  -24.3314   25.2379 C   0  0  0  0  0  0  0  0  0  0  0  0
  -10.2603  -24.0361   26.7941 C   0  0  0  0  0  0  0  0  0  0  0  0
  -11.1839  -25.7095   25.3961 C   0  0  0  0  0  0  0  0  0  0  0  0
   -6.2078  -23.0469   24.8072 N   0  0  0  0  0  0  0  0  0  0  0  0
   -4.9367  -23.5445   24.6098 C   0  0  0  0  0  0  0  0  0  0  0  0
   -4.1909  -23.1125   25.6819 C   0  0  0  0  0  0  0  0  0  0  0  0
   -4.9466  -22.3435   26.5172 N   0  0  0  0  0  0  0  0  0  0  0  0
   -6.1211  -22.2586   25.9317 C   0  0  0  0  0  0  0  0  0  0  0  0
   -5.7481  -18.9120   21.7352 C   0  0  0  0  0  0  0  0  0  0  0  0
   -5.0614  -17.7947   21.1481 C   0  0  0  0  0  0  0  0  0  0  0  0
   -3.8520  -18.0539   20.5023 C   0  0  0  0  0  0  0  0  0  0  0  0
   -2.8742  -17.2773   19.9188 N   0  0  0  0  0  0  0  0  0  0  0  0
    0.1377  -17.9469   19.1888 H   0  0  0  0  0  0  0  0  0  0  0  0
   -0.0793  -18.3226   20.9123 H   0  0  0  0  0  0  0  0  0  0  0  0
   -0.3014  -16.6629   20.4189 H   0  0  0  0  0  0  0  0  0  0  0  0
   -3.5744  -21.3967   20.9724 H   0  0  0  0  0  0  0  0  0  0  0  0
   -5.3197  -22.2502   22.4143 H   0  0  0  0  0  0  0  0  0  0  0  0
   -6.8649  -23.7542   23.0060 H   0  0  0  0  0  0  0  0  0  0  0  0
   -9.3799  -23.1608   23.4373 H   0  0  0  0  0  0  0  0  0  0  0  0
   -8.6284  -24.7939   23.5143 H   0  0  0  0  0  0  0  0  0  0  0  0
  -11.1531  -23.7562   24.7727 H   0  0  0  0  0  0  0  0  0  0  0  0
  -10.3779  -24.9347   27.4152 H   0  0  0  0  0  0  0  0  0  0  0  0
  -11.0776  -23.3635   27.0845 H   0  0  0  0  0  0  0  0  0  0  0  0
   -9.3266  -23.6247   27.1415 H   0  0  0  0  0  0  0  0  0  0  0  0
  -12.0234  -25.5201   26.0837 H   0  0  0  0  0  0  0  0  0  0  0  0
  -11.6973  -26.1101   24.5312 H   0  0  0  0  0  0  0  0  0  0  0  0
  -10.6165  -26.5372   25.8368 H   0  0  0  0  0  0  0  0  0  0  0  0
   -4.6797  -24.1692   23.7658 H   0  0  0  0  0  0  0  0  0  0  0  0
   -3.1505  -23.3222   25.8925 H   0  0  0  0  0  0  0  0  0  0  0  0
   -6.9109  -21.6213   26.2995 H   0  0  0  0  0  0  0  0  0  0  0  0
   -6.6878  -18.7174   22.2527 H   0  0  0  0  0  0  0  0  0  0  0  0
   -5.4763  -16.7974   21.2265 H   0  0  0  0  0  0  0  0  0  0  0  0
   -2.8233  -16.2814   20.0017 H   0  0  0  0  0  0  0  0  0  0  0  0
  1  2  1  0
  2  3  2  0
  3  4  1  0
  4  5  2  0
  5  6  1  0
  6  7  1  0
  7  8  1  0
  8  9  2  0
  8 10  1  0
 10 11  1  0
 11 12  1  0
 12 13  1  0
 12 14  1  0
 10 15  1  0
 15 16  1  0
 16 17  2  0
 17 18  1  0
 18 19  2  0
  6 20  2  0
 20 21  1  0
 21 22  2  0
 22 23  1  0
 23  2  1  0
 22  4  1  0
 19 15  1  0
  1 24  1  0
  1 25  1  0
  1 26  1  0
  5 27  1  0
  7 28  1  0
 10 29  1  0
 11 30  1  0
 11 31  1  0
 12 32  1  0
 13 33  1  0
 13 34  1  0
 13 35  1  0
 14 36  1  0
 14 37  1  0
 14 38  1  0
 16 39  1  0
 17 40  1  0
 19 41  1  0
 20 42  1  0
 21 43  1  0
 23 44  1  0
M  END
>  <Energy>  (1455) 
177.25289730948037

>  <compound_id>  (1455) 
31640

>  <target_id>  (1455) 
1

>  <reference_id>  (1455) 
55

>  <inspiration_ids>  (1455) 
[55, 35]

>  <energy_score>  (1455) 
120.16755813845748

>  <distance_score>  (1455) 
19.479807896925607

>  <path>  (1455) 
/opt/xchem-fragalysis-2/maxwin/BulkDock/SCRATCH/511017/C31640-P55/C31640-P55.minimised.mol

>  <scratch_subdir>  (1455) 
/opt/xchem-fragalysis-2/maxwin/BulkDock/SCRATCH/511017/C31640-P55

>  <fragmenstein_runtime>  (1455) 
45.13486695289612

>  <fragmenstein_outcome>  (1455) 
too moved

>  <fragmenstein_mode>  (1455) 
expansion

>  <fragmenstein_error>  (1455) 


$$$$
C31640-P35
     RDKit          3D

 44 46  0  0  0  0  0  0  0  0999 V2000
    6.1428  -11.0192   23.4819 C   0  0  0  0  0  0  0  0  0  0  0  0
    4.6777  -11.0139   22.4236 C   0  0  0  0  0  0  0  0  0  0  0  0
    3.4628  -10.6145   22.8198 N   0  0  0  0  0  0  0  0  0  0  0  0
    2.8535  -11.6319   23.3331 C   0  0  0  0  0  0  0  0  0  0  0  0
    1.9406  -12.0183   24.7969 C   0  0  0  0  0  0  0  0  0  0  0  0
    1.5963  -13.1369   25.4737 C   0  0  0  0  0  0  0  0  0  0  0  0
    0.9671  -13.1180   26.7987 N   0  0  0  0  0  0  0  0  0  0  0  0
   -0.4602  -12.9388   27.2054 C   0  0  0  0  0  0  0  0  0  0  0  0
   -1.4406  -12.6806   26.5462 O   0  0  0  0  0  0  0  0  0  0  0  0
   -0.7527  -13.2442   28.7375 C   0  0  0  0  0  0  0  0  0  0  0  0
    0.4370  -13.0373   29.6956 C   0  0  0  0  0  0  0  0  0  0  0  0
    0.0640  -12.8827   31.1873 C   0  0  0  0  0  0  0  0  0  0  0  0
    1.3392  -12.8865   32.0363 C   0  0  0  0  0  0  0  0  0  0  0  0
   -0.7274  -11.6026   31.4639 C   0  0  0  0  0  0  0  0  0  0  0  0
   -1.4967  -14.5396   28.9240 N   0  0  0  0  0  0  0  0  0  0  0  0
   -1.0667  -15.7150   29.5047 C   0  0  0  0  0  0  0  0  0  0  0  0
   -2.1438  -16.5763   29.4869 C   0  0  0  0  0  0  0  0  0  0  0  0
   -3.2296  -15.9682   28.9255 N   0  0  0  0  0  0  0  0  0  0  0  0
   -2.8212  -14.7582   28.6005 C   0  0  0  0  0  0  0  0  0  0  0  0
    1.8720  -13.0778   24.2122 C   0  0  0  0  0  0  0  0  0  0  0  0
    3.0470  -13.6733   23.4925 C   0  0  0  0  0  0  0  0  0  0  0  0
    3.3237  -12.6610   22.6769 C   0  0  0  0  0  0  0  0  0  0  0  0
    4.1075  -12.1721   21.6601 N   0  0  0  0  0  0  0  0  0  0  0  0
    6.9703  -11.4331   22.9486 H   0  0  0  0  0  0  0  0  0  0  0  0
    6.4034  -10.1748   24.1075 H   0  0  0  0  0  0  0  0  0  0  0  0
    6.0516  -11.7299   24.3084 H   0  0  0  0  0  0  0  0  0  0  0  0
    1.6243  -11.3702   25.5849 H   0  0  0  0  0  0  0  0  0  0  0  0
    1.5061  -13.4096   27.5987 H   0  0  0  0  0  0  0  0  0  0  0  0
   -1.5066  -12.4892   29.0007 H   0  0  0  0  0  0  0  0  0  0  0  0
    1.1374  -13.8758   29.5942 H   0  0  0  0  0  0  0  0  0  0  0  0
    0.9905  -12.1399   29.3871 H   0  0  0  0  0  0  0  0  0  0  0  0
   -0.5457  -13.7357   31.5055 H   0  0  0  0  0  0  0  0  0  0  0  0
    1.0983  -12.8078   33.1018 H   0  0  0  0  0  0  0  0  0  0  0  0
    1.9944  -12.0489   31.7738 H   0  0  0  0  0  0  0  0  0  0  0  0
    1.9005  -13.8156   31.8911 H   0  0  0  0  0  0  0  0  0  0  0  0
   -0.8947  -11.4750   32.5390 H   0  0  0  0  0  0  0  0  0  0  0  0
   -1.7117  -11.6282   30.9880 H   0  0  0  0  0  0  0  0  0  0  0  0
   -0.1936  -10.7186   31.0991 H   0  0  0  0  0  0  0  0  0  0  0  0
   -0.0602  -15.8516   29.8718 H   0  0  0  0  0  0  0  0  0  0  0  0
   -2.1899  -17.5947   29.8508 H   0  0  0  0  0  0  0  0  0  0  0  0
   -3.4294  -13.9974   28.1263 H   0  0  0  0  0  0  0  0  0  0  0  0
    1.1629  -11.9952   23.3764 H   0  0  0  0  0  0  0  0  0  0  0  0
    3.5897  -14.5698   23.7135 H   0  0  0  0  0  0  0  0  0  0  0  0
    4.5717  -12.6960   20.9182 H   0  0  0  0  0  0  0  0  0  0  0  0
  1  2  1  0
  2  3  2  0
  3  4  1  0
  4  5  2  0
  5  6  1  0
  6  7  1  0
  7  8  1  0
  8  9  2  0
  8 10  1  0
 10 11  1  0
 11 12  1  0
 12 13  1  0
 12 14  1  0
 10 15  1  0
 15 16  1  0
 16 17  2  0
 17 18  1  0
 18 19  2  0
  6 20  2  0
 20 21  1  0
 21 22  2  0
 22 23  1  0
 23  2  1  0
 22  4  1  0
 19 15  1  0
  1 24  1  0
  1 25  1  0
  1 26  1  0
  5 27  1  0
  7 28  1  0
 10 29  1  0
 11 30  1  0
 11 31  1  0
 12 32  1  0
 13 33  1  0
 13 34  1  0
 13 35  1  0
 14 36  1  0
 14 37  1  0
 14 38  1  0
 16 39  1  0
 17 40  1  0
 19 41  1  0
 20 42  1  0
 21 43  1  0
 23 44  1  0
M  END
>  <Energy>  (1456) 
541.75705932281392

>  <compound_id>  (1456) 
31640

>  <target_id>  (1456) 
1

>  <reference_id>  (1456) 
35

>  <inspiration_ids>  (1456) 
[55, 35]

>  <energy_score>  (1456) 
484.671720151783

>  <distance_score>  (1456) 
15.683972255378725

>  <path>  (1456) 
/opt/xchem-fragalysis-2/maxwin/BulkDock/SCRATCH/511017/C31640-P35/C31640-P35.minimised.mol

>  <scratch_subdir>  (1456) 
/opt/xchem-fragalysis-2/maxwin/BulkDock/SCRATCH/511017/C31640-P35

>  <fragmenstein_runtime>  (1456) 
36.99477243423462

>  <fragmenstein_outcome>  (1456) 
too moved

>  <fragmenstein_mode>  (1456) 
expansion

>  <fragmenstein_error>  (1456) 


$$$$
C31641-P55
     RDKit          3D

 44 46  0  0  0  0  0  0  0  0999 V2000
   -0.0535   -6.7989   23.3300 C   0  0  0  0  0  0  0  0  0  0  0  0
   -1.1329   -6.4873   24.3608 C   0  0  0  0  0  0  0  0  0  0  0  0
   -2.2936   -5.7679   23.6604 C   0  0  0  0  0  0  0  0  0  0  0  0
   -0.6661   -5.6481   25.5727 C   0  0  0  0  0  0  0  0  0  0  0  0
    0.3681   -6.2485   26.5729 C   0  0  0  0  0  0  0  0  0  0  0  0
    1.9788   -5.9522   26.2866 C   0  0  0  0  0  0  0  0  0  0  0  0
    2.7181   -6.1969   27.2094 O   0  0  0  0  0  0  0  0  0  0  0  0
    2.2627   -5.3466   24.9506 N   0  0  0  0  0  0  0  0  0  0  0  0
    3.4783   -4.7895   24.4029 C   0  0  0  0  0  0  0  0  0  0  0  0
    4.7303   -4.9444   25.0049 C   0  0  0  0  0  0  0  0  0  0  0  0
    5.9066   -4.3119   24.5153 C   0  0  0  0  0  0  0  0  0  0  0  0
    5.7877   -3.4690   23.4063 C   0  0  0  0  0  0  0  0  0  0  0  0
    6.6566   -2.5892   22.8011 N   0  0  0  0  0  0  0  0  0  0  0  0
    5.9704   -1.8874   21.8340 C   0  0  0  0  0  0  0  0  0  0  0  0
    6.5333   -0.6449   21.2061 C   0  0  0  0  0  0  0  0  0  0  0  0
    7.4521   -0.9064   20.2317 F   0  0  0  0  0  0  0  0  0  0  0  0
    7.2005    0.0945   22.1353 F   0  0  0  0  0  0  0  0  0  0  0  0
    4.7515   -2.3951   21.6975 N   0  0  0  0  0  0  0  0  0  0  0  0
    4.5913   -3.3168   22.7252 C   0  0  0  0  0  0  0  0  0  0  0  0
    3.4381   -4.0141   23.2066 C   0  0  0  0  0  0  0  0  0  0  0  0
   -0.0970   -7.5477   27.2587 N   0  0  0  0  0  0  0  0  0  0  0  0
    0.5757   -8.3298   28.1814 C   0  0  0  0  0  0  0  0  0  0  0  0
   -0.2909   -9.3241   28.5935 C   0  0  0  0  0  0  0  0  0  0  0  0
   -1.5216   -9.1330   28.0412 N   0  0  0  0  0  0  0  0  0  0  0  0
   -1.4033   -8.0269   27.3309 C   0  0  0  0  0  0  0  0  0  0  0  0
   -0.4438   -7.4725   22.5587 H   0  0  0  0  0  0  0  0  0  0  0  0
    0.8030   -7.2950   23.7883 H   0  0  0  0  0  0  0  0  0  0  0  0
    0.2918   -5.8937   22.8202 H   0  0  0  0  0  0  0  0  0  0  0  0
   -1.5301   -7.4385   24.7185 H   0  0  0  0  0  0  0  0  0  0  0  0
   -1.9791   -4.7945   23.2687 H   0  0  0  0  0  0  0  0  0  0  0  0
   -3.1255   -5.6029   24.3535 H   0  0  0  0  0  0  0  0  0  0  0  0
   -2.6736   -6.3640   22.8237 H   0  0  0  0  0  0  0  0  0  0  0  0
   -0.3178   -4.6681   25.2238 H   0  0  0  0  0  0  0  0  0  0  0  0
   -1.5659   -5.4083   26.1589 H   0  0  0  0  0  0  0  0  0  0  0  0
    0.2457   -5.5766   27.4446 H   0  0  0  0  0  0  0  0  0  0  0  0
    1.3975   -5.2117   24.4587 H   0  0  0  0  0  0  0  0  0  0  0  0
    4.8212   -5.5490   25.9067 H   0  0  0  0  0  0  0  0  0  0  0  0
    6.8467   -4.4313   25.0466 H   0  0  0  0  0  0  0  0  0  0  0  0
    7.5664   -2.3495   23.1629 H   0  0  0  0  0  0  0  0  0  0  0  0
    5.7412   -0.0257   20.7774 H   0  0  0  0  0  0  0  0  0  0  0  0
    2.5010   -3.8601   22.6811 H   0  0  0  0  0  0  0  0  0  0  0  0
    1.5993   -8.1171   28.4566 H   0  0  0  0  0  0  0  0  0  0  0  0
   -0.0941  -10.1362   29.2816 H   0  0  0  0  0  0  0  0  0  0  0  0
   -2.2317   -7.5346   26.8404 H   0  0  0  0  0  0  0  0  0  0  0  0
  1  2  1  0
  2  3  1  0
  2  4  1  0
  4  5  1  0
  5  6  1  0
  6  7  2  0
  6  8  1  0
  8  9  1  0
  9 10  2  0
 10 11  1  0
 11 12  2  0
 12 13  1  0
 13 14  1  0
 14 15  1  0
 15 16  1  0
 15 17  1  0
 14 18  2  0
 18 19  1  0
 19 20  2  0
  5 21  1  0
 21 22  1  0
 22 23  2  0
 23 24  1  0
 24 25  2  0
 20  9  1  0
 25 21  1  0
 19 12  1  0
  1 26  1  0
  1 27  1  0
  1 28  1  0
  2 29  1  0
  3 30  1  0
  3 31  1  0
  3 32  1  0
  4 33  1  0
  4 34  1  0
  5 35  1  0
  8 36  1  0
 10 37  1  0
 11 38  1  0
 13 39  1  0
 15 40  1  0
 20 41  1  0
 22 42  1  0
 23 43  1  0
 25 44  1  0
M  END
>  <Energy>  (1457) 
76.438693020458302

>  <compound_id>  (1457) 
31641

>  <target_id>  (1457) 
1

>  <reference_id>  (1457) 
55

>  <inspiration_ids>  (1457) 
[55, 35]

>  <energy_score>  (1457) 
-3.4428558622563514

>  <distance_score>  (1457) 
16.089278745848755

>  <path>  (1457) 
/opt/xchem-fragalysis-2/maxwin/BulkDock/SCRATCH/511017/C31641-P55/C31641-P55.minimised.mol

>  <scratch_subdir>  (1457) 
/opt/xchem-fragalysis-2/maxwin/BulkDock/SCRATCH/511017/C31641-P55

>  <fragmenstein_runtime>  (1457) 
29.277377605438232

>  <fragmenstein_outcome>  (1457) 
too moved

>  <fragmenstein_mode>  (1457) 
expansion

>  <fragmenstein_error>  (1457) 


$$$$
C31641-P35
     RDKit          3D

 44 46  0  0  0  0  0  0  0  0999 V2000
   -3.0059  -12.8586   28.4773 C   0  0  0  0  0  0  0  0  0  0  0  0
   -2.0248  -12.2016   27.4851 C   0  0  0  0  0  0  0  0  0  0  0  0
   -1.1694  -11.2562   28.3568 C   0  0  0  0  0  0  0  0  0  0  0  0
   -1.1099  -13.2333   26.7761 C   0  0  0  0  0  0  0  0  0  0  0  0
   -1.3496  -13.8152   25.1789 C   0  0  0  0  0  0  0  0  0  0  0  0
    0.0591  -13.8607   23.6788 C   0  0  0  0  0  0  0  0  0  0  0  0
   -0.3147  -14.3271   22.6288 O   0  0  0  0  0  0  0  0  0  0  0  0
    1.7987  -13.0409   23.9135 N   0  0  0  0  0  0  0  0  0  0  0  0
    3.1571  -12.6641   22.6725 C   0  0  0  0  0  0  0  0  0  0  0  0
    3.3865  -13.3555   21.3172 C   0  0  0  0  0  0  0  0  0  0  0  0
    4.1527  -13.1436   20.0206 C   0  0  0  0  0  0  0  0  0  0  0  0
    5.2631  -12.5342   20.1029 C   0  0  0  0  0  0  0  0  0  0  0  0
    5.8203  -11.9052   19.0935 N   0  0  0  0  0  0  0  0  0  0  0  0
    6.7564  -11.0919   19.5104 C   0  0  0  0  0  0  0  0  0  0  0  0
    7.6741  -10.1286   18.7315 C   0  0  0  0  0  0  0  0  0  0  0  0
    7.0848   -8.8894   18.7345 F   0  0  0  0  0  0  0  0  0  0  0  0
    7.8752  -10.3715   17.4133 F   0  0  0  0  0  0  0  0  0  0  0  0
    6.3593  -11.0667   20.7760 N   0  0  0  0  0  0  0  0  0  0  0  0
    5.2156  -11.6389   21.0532 C   0  0  0  0  0  0  0  0  0  0  0  0
    4.0692  -11.5966   22.3180 C   0  0  0  0  0  0  0  0  0  0  0  0
   -2.9932  -14.4465   25.4194 N   0  0  0  0  0  0  0  0  0  0  0  0
   -3.4366  -15.7517   25.6281 C   0  0  0  0  0  0  0  0  0  0  0  0
   -4.7698  -15.6819   25.9527 C   0  0  0  0  0  0  0  0  0  0  0  0
   -5.1832  -14.3861   25.9390 N   0  0  0  0  0  0  0  0  0  0  0  0
   -4.1208  -13.6771   25.6118 C   0  0  0  0  0  0  0  0  0  0  0  0
   -3.5695  -13.6862   28.0533 H   0  0  0  0  0  0  0  0  0  0  0  0
   -2.4778  -13.2661   29.3478 H   0  0  0  0  0  0  0  0  0  0  0  0
   -3.7245  -12.1180   28.8456 H   0  0  0  0  0  0  0  0  0  0  0  0
   -2.5794  -11.6128   26.7530 H   0  0  0  0  0  0  0  0  0  0  0  0
   -0.7035  -11.7962   29.1896 H   0  0  0  0  0  0  0  0  0  0  0  0
   -0.3572  -10.7897   27.7985 H   0  0  0  0  0  0  0  0  0  0  0  0
   -1.7890  -10.4572   28.7785 H   0  0  0  0  0  0  0  0  0  0  0  0
   -1.1429  -14.0916   27.4616 H   0  0  0  0  0  0  0  0  0  0  0  0
   -0.0769  -12.8567   26.8183 H   0  0  0  0  0  0  0  0  0  0  0  0
   -1.3975  -14.8578   24.8276 H   0  0  0  0  0  0  0  0  0  0  0  0
    1.8637  -12.6437   24.8482 H   0  0  0  0  0  0  0  0  0  0  0  0
    2.7863  -14.2377   21.0893 H   0  0  0  0  0  0  0  0  0  0  0  0
    3.8995  -13.6158   19.0540 H   0  0  0  0  0  0  0  0  0  0  0  0
    5.1300  -11.8005   18.3602 H   0  0  0  0  0  0  0  0  0  0  0  0
    8.6744  -10.1028   19.1601 H   0  0  0  0  0  0  0  0  0  0  0  0
    4.4224  -10.6964   22.7512 H   0  0  0  0  0  0  0  0  0  0  0  0
   -2.8322  -16.6339   25.5342 H   0  0  0  0  0  0  0  0  0  0  0  0
   -5.4454  -16.4949   26.1842 H   0  0  0  0  0  0  0  0  0  0  0  0
   -4.1102  -12.6015   25.5149 H   0  0  0  0  0  0  0  0  0  0  0  0
  1  2  1  0
  2  3  1  0
  2  4  1  0
  4  5  1  0
  5  6  1  0
  6  7  2  0
  6  8  1  0
  8  9  1  0
  9 10  2  0
 10 11  1  0
 11 12  2  0
 12 13  1  0
 13 14  1  0
 14 15  1  0
 15 16  1  0
 15 17  1  0
 14 18  2  0
 18 19  1  0
 19 20  2  0
  5 21  1  0
 21 22  1  0
 22 23  2  0
 23 24  1  0
 24 25  2  0
 20  9  1  0
 25 21  1  0
 19 12  1  0
  1 26  1  0
  1 27  1  0
  1 28  1  0
  2 29  1  0
  3 30  1  0
  3 31  1  0
  3 32  1  0
  4 33  1  0
  4 34  1  0
  5 35  1  0
  8 36  1  0
 10 37  1  0
 11 38  1  0
 13 39  1  0
 15 40  1  0
 20 41  1  0
 22 42  1  0
 23 43  1  0
 25 44  1  0
M  END
>  <Energy>  (1458) 
559.92383863304303

>  <compound_id>  (1458) 
31641

>  <target_id>  (1458) 
1

>  <reference_id>  (1458) 
35

>  <inspiration_ids>  (1458) 
[55, 35]

>  <energy_score>  (1458) 
480.0422897503295

>  <distance_score>  (1458) 
14.469023333448387

>  <path>  (1458) 
/opt/xchem-fragalysis-2/maxwin/BulkDock/SCRATCH/511017/C31641-P35/C31641-P35.minimised.mol

>  <scratch_subdir>  (1458) 
/opt/xchem-fragalysis-2/maxwin/BulkDock/SCRATCH/511017/C31641-P35

>  <fragmenstein_runtime>  (1458) 
19.97718834877014

>  <fragmenstein_outcome>  (1458) 
too moved

>  <fragmenstein_mode>  (1458) 
expansion

>  <fragmenstein_error>  (1458) 


$$$$
C31642-P55
     RDKit          3D

 46 49  0  0  0  0  0  0  0  0999 V2000
   -9.3182  -15.7866   26.8670 C   0  0  0  0  0  0  0  0  0  0  0  0
   -9.7250  -14.4801   26.1586 C   0  0  0  0  0  0  0  0  0  0  0  0
  -11.0579  -14.7178   25.4000 C   0  0  0  0  0  0  0  0  0  0  0  0
  -12.2089  -14.4796   26.2570 N   0  0  0  0  0  0  0  0  0  0  0  0
  -12.9224  -15.4076   26.9549 C   0  0  0  0  0  0  0  0  0  0  0  0
  -13.8438  -14.6806   27.6741 C   0  0  0  0  0  0  0  0  0  0  0  0
  -13.7302  -13.3409   27.3967 N   0  0  0  0  0  0  0  0  0  0  0  0
  -12.7547  -13.2545   26.5209 C   0  0  0  0  0  0  0  0  0  0  0  0
   -8.6077  -13.9726   25.2826 N   0  0  0  0  0  0  0  0  0  0  0  0
   -8.8725  -12.5924   24.7926 C   0  0  0  0  0  0  0  0  0  0  0  0
   -7.8305  -11.8574   23.9130 C   0  0  0  0  0  0  0  0  0  0  0  0
   -7.5635  -12.1827   22.5794 C   0  0  0  0  0  0  0  0  0  0  0  0
   -6.7212  -11.3502   21.7229 C   0  0  0  0  0  0  0  0  0  0  0  0
   -6.0271  -10.1707   22.1630 C   0  0  0  0  0  0  0  0  0  0  0  0
   -4.8689   -9.5376   21.3565 N   0  0  0  0  0  0  0  0  0  0  0  0
   -4.6478   -9.8179   20.0046 C   0  0  0  0  0  0  0  0  0  0  0  0
   -3.5560   -9.3028   19.4825 N   0  0  0  0  0  0  0  0  0  0  0  0
   -2.9630   -8.6237   20.4967 C   0  0  0  0  0  0  0  0  0  0  0  0
   -1.7322   -7.9243   20.4413 C   0  0  0  0  0  0  0  0  0  0  0  0
   -1.2577   -7.2808   21.5773 C   0  0  0  0  0  0  0  0  0  0  0  0
   -2.0168   -7.3304   22.7430 C   0  0  0  0  0  0  0  0  0  0  0  0
   -3.2501   -8.0331   22.8200 C   0  0  0  0  0  0  0  0  0  0  0  0
   -3.7395   -8.6987   21.6776 C   0  0  0  0  0  0  0  0  0  0  0  0
   -6.3819   -9.8171   23.4660 C   0  0  0  0  0  0  0  0  0  0  0  0
   -7.2529  -10.6328   24.3118 C   0  0  0  0  0  0  0  0  0  0  0  0
  -10.1610  -16.2174   27.4122 H   0  0  0  0  0  0  0  0  0  0  0  0
   -8.5172  -15.5950   27.5836 H   0  0  0  0  0  0  0  0  0  0  0  0
   -8.9705  -16.5359   26.1475 H   0  0  0  0  0  0  0  0  0  0  0  0
   -9.8830  -13.7415   26.9466 H   0  0  0  0  0  0  0  0  0  0  0  0
  -11.1888  -14.0515   24.5429 H   0  0  0  0  0  0  0  0  0  0  0  0
  -11.1277  -15.7417   25.0133 H   0  0  0  0  0  0  0  0  0  0  0  0
  -12.7341  -16.4697   26.9077 H   0  0  0  0  0  0  0  0  0  0  0  0
  -14.5819  -15.0585   28.3717 H   0  0  0  0  0  0  0  0  0  0  0  0
  -12.3957  -12.3393   26.0688 H   0  0  0  0  0  0  0  0  0  0  0  0
   -7.7770  -13.8880   25.8722 H   0  0  0  0  0  0  0  0  0  0  0  0
   -9.7958  -12.5717   24.2048 H   0  0  0  0  0  0  0  0  0  0  0  0
   -9.0485  -11.9526   25.6564 H   0  0  0  0  0  0  0  0  0  0  0  0
   -8.0093  -13.0772   22.1473 H   0  0  0  0  0  0  0  0  0  0  0  0
   -6.5401  -11.7394   20.7228 H   0  0  0  0  0  0  0  0  0  0  0  0
   -5.3491  -10.4188   19.4446 H   0  0  0  0  0  0  0  0  0  0  0  0
   -1.1736   -7.9062   19.5113 H   0  0  0  0  0  0  0  0  0  0  0  0
   -0.3136   -6.7454   21.5510 H   0  0  0  0  0  0  0  0  0  0  0  0
   -1.6546   -6.8139   23.6309 H   0  0  0  0  0  0  0  0  0  0  0  0
   -3.8046   -8.0413   23.7512 H   0  0  0  0  0  0  0  0  0  0  0  0
   -6.0203   -8.8765   23.8702 H   0  0  0  0  0  0  0  0  0  0  0  0
   -7.4724  -10.2427   25.3076 H   0  0  0  0  0  0  0  0  0  0  0  0
  1  2  1  0
  2  3  1  0
  3  4  1  0
  4  5  1  0
  5  6  2  0
  6  7  1  0
  7  8  2  0
  2  9  1  0
  9 10  1  0
 10 11  1  0
 11 12  2  0
 12 13  1  0
 13 14  2  0
 14 15  1  0
 15 16  1  0
 16 17  2  0
 17 18  1  0
 18 19  2  0
 19 20  1  0
 20 21  2  0
 21 22  1  0
 22 23  2  0
 14 24  1  0
 24 25  2  0
  8  4  1  0
 25 11  1  0
 23 15  1  0
 23 18  1  0
  1 26  1  0
  1 27  1  0
  1 28  1  0
  2 29  1  0
  3 30  1  0
  3 31  1  0
  5 32  1  0
  6 33  1  0
  8 34  1  0
  9 35  1  0
 10 36  1  0
 10 37  1  0
 12 38  1  0
 13 39  1  0
 16 40  1  0
 19 41  1  0
 20 42  1  0
 21 43  1  0
 22 44  1  0
 24 45  1  0
 25 46  1  0
M  END
>  <Energy>  (1459) 
100.67054304233547

>  <compound_id>  (1459) 
31642

>  <target_id>  (1459) 
1

>  <reference_id>  (1459) 
55

>  <inspiration_ids>  (1459) 
[55, 35]

>  <energy_score>  (1459) 
-2.7394303693886854

>  <distance_score>  (1459) 
16.934740504336222

>  <path>  (1459) 
/opt/xchem-fragalysis-2/maxwin/BulkDock/SCRATCH/511017/C31642-P55/C31642-P55.minimised.mol

>  <scratch_subdir>  (1459) 
/opt/xchem-fragalysis-2/maxwin/BulkDock/SCRATCH/511017/C31642-P55

>  <fragmenstein_runtime>  (1459) 
40.130452394485474

>  <fragmenstein_outcome>  (1459) 
too moved

>  <fragmenstein_mode>  (1459) 
expansion

>  <fragmenstein_error>  (1459) 


$$$$
C31642-P35
     RDKit          3D

 46 49  0  0  0  0  0  0  0  0999 V2000
   -5.0157  -21.6854   26.3227 C   0  0  0  0  0  0  0  0  0  0  0  0
   -5.0269  -21.7051   24.7791 C   0  0  0  0  0  0  0  0  0  0  0  0
   -6.2416  -20.9220   24.2340 C   0  0  0  0  0  0  0  0  0  0  0  0
   -7.5292  -21.4448   24.6463 N   0  0  0  0  0  0  0  0  0  0  0  0
   -8.3745  -20.8806   25.5601 C   0  0  0  0  0  0  0  0  0  0  0  0
   -9.4915  -21.6826   25.5510 C   0  0  0  0  0  0  0  0  0  0  0  0
   -9.3455  -22.7097   24.6560 N   0  0  0  0  0  0  0  0  0  0  0  0
   -8.1540  -22.5413   24.1263 C   0  0  0  0  0  0  0  0  0  0  0  0
   -3.7540  -21.1431   24.2196 N   0  0  0  0  0  0  0  0  0  0  0  0
   -3.4437  -21.5706   22.8273 C   0  0  0  0  0  0  0  0  0  0  0  0
   -2.3065  -20.8166   22.0588 C   0  0  0  0  0  0  0  0  0  0  0  0
   -2.5362  -19.9971   20.9192 C   0  0  0  0  0  0  0  0  0  0  0  0
   -1.4992  -19.2264   20.2127 C   0  0  0  0  0  0  0  0  0  0  0  0
   -0.1380  -19.3170   20.5320 C   0  0  0  0  0  0  0  0  0  0  0  0
    1.0161  -18.5044   19.8874 N   0  0  0  0  0  0  0  0  0  0  0  0
    2.3705  -18.7320   20.1788 C   0  0  0  0  0  0  0  0  0  0  0  0
    3.2136  -17.8278   19.7206 N   0  0  0  0  0  0  0  0  0  0  0  0
    2.4691  -17.0374   18.9054 C   0  0  0  0  0  0  0  0  0  0  0  0
    2.9419  -15.9726   18.0974 C   0  0  0  0  0  0  0  0  0  0  0  0
    2.0594  -15.3177   17.2474 C   0  0  0  0  0  0  0  0  0  0  0  0
    0.7227  -15.7132   17.2364 C   0  0  0  0  0  0  0  0  0  0  0  0
    0.2205  -16.7432   18.0829 C   0  0  0  0  0  0  0  0  0  0  0  0
    1.1079  -17.4288   18.9341 C   0  0  0  0  0  0  0  0  0  0  0  0
    0.0809  -20.2509   21.5986 C   0  0  0  0  0  0  0  0  0  0  0  0
   -0.9537  -20.9373   22.3660 C   0  0  0  0  0  0  0  0  0  0  0  0
   -4.1249  -22.1934   26.7082 H   0  0  0  0  0  0  0  0  0  0  0  0
   -5.0196  -20.6651   26.7121 H   0  0  0  0  0  0  0  0  0  0  0  0
   -5.8864  -22.2118   26.7246 H   0  0  0  0  0  0  0  0  0  0  0  0
   -5.0979  -22.7586   24.4784 H   0  0  0  0  0  0  0  0  0  0  0  0
   -6.2011  -19.8742   24.5496 H   0  0  0  0  0  0  0  0  0  0  0  0
   -6.2559  -20.9217   23.1382 H   0  0  0  0  0  0  0  0  0  0  0  0
   -8.1291  -19.9868   26.1157 H   0  0  0  0  0  0  0  0  0  0  0  0
  -10.3951  -21.5701   26.1358 H   0  0  0  0  0  0  0  0  0  0  0  0
   -7.7055  -23.1773   23.3740 H   0  0  0  0  0  0  0  0  0  0  0  0
   -2.9734  -21.4091   24.8205 H   0  0  0  0  0  0  0  0  0  0  0  0
   -4.3423  -21.4767   22.2081 H   0  0  0  0  0  0  0  0  0  0  0  0
   -3.1798  -22.6356   22.8302 H   0  0  0  0  0  0  0  0  0  0  0  0
   -3.5588  -19.8823   20.5533 H   0  0  0  0  0  0  0  0  0  0  0  0
   -1.8261  -18.5792   19.4028 H   0  0  0  0  0  0  0  0  0  0  0  0
    2.6712  -19.5612   20.8031 H   0  0  0  0  0  0  0  0  0  0  0  0
    3.9942  -15.7099   18.1255 H   0  0  0  0  0  0  0  0  0  0  0  0
    2.4073  -14.5172   16.6019 H   0  0  0  0  0  0  0  0  0  0  0  0
    0.0265  -15.2037   16.5712 H   0  0  0  0  0  0  0  0  0  0  0  0
   -0.8331  -16.9983   18.0474 H   0  0  0  0  0  0  0  0  0  0  0  0
    1.0980  -20.4620   21.9299 H   0  0  0  0  0  0  0  0  0  0  0  0
   -0.6332  -21.5773   23.1869 H   0  0  0  0  0  0  0  0  0  0  0  0
  1  2  1  0
  2  3  1  0
  3  4  1  0
  4  5  1  0
  5  6  2  0
  6  7  1  0
  7  8  2  0
  2  9  1  0
  9 10  1  0
 10 11  1  0
 11 12  2  0
 12 13  1  0
 13 14  2  0
 14 15  1  0
 15 16  1  0
 16 17  2  0
 17 18  1  0
 18 19  2  0
 19 20  1  0
 20 21  2  0
 21 22  1  0
 22 23  2  0
 14 24  1  0
 24 25  2  0
  8  4  1  0
 25 11  1  0
 23 15  1  0
 23 18  1  0
  1 26  1  0
  1 27  1  0
  1 28  1  0
  2 29  1  0
  3 30  1  0
  3 31  1  0
  5 32  1  0
  6 33  1  0
  8 34  1  0
  9 35  1  0
 10 36  1  0
 10 37  1  0
 12 38  1  0
 13 39  1  0
 16 40  1  0
 19 41  1  0
 20 42  1  0
 21 43  1  0
 22 44  1  0
 24 45  1  0
 25 46  1  0
M  END
>  <Energy>  (1460) 
98.889849978111968

>  <compound_id>  (1460) 
31642

>  <target_id>  (1460) 
1

>  <reference_id>  (1460) 
35

>  <inspiration_ids>  (1460) 
[55, 35]

>  <energy_score>  (1460) 
-4.520123433617698

>  <distance_score>  (1460) 
17.223523222702234

>  <path>  (1460) 
/opt/xchem-fragalysis-2/maxwin/BulkDock/SCRATCH/511017/C31642-P35/C31642-P35.minimised.mol

>  <scratch_subdir>  (1460) 
/opt/xchem-fragalysis-2/maxwin/BulkDock/SCRATCH/511017/C31642-P35

>  <fragmenstein_runtime>  (1460) 
28.485891580581665

>  <fragmenstein_outcome>  (1460) 
too moved

>  <fragmenstein_mode>  (1460) 
expansion

>  <fragmenstein_error>  (1460) 


$$$$
C31643-P55
     RDKit          3D

 49 52  0  0  0  0  0  0  0  0999 V2000
   -4.9791  -19.4432   32.4686 C   0  0  0  0  0  0  0  0  0  0  0  0
   -4.6628  -20.3969   31.3712 N   0  0  0  0  0  0  0  0  0  0  0  0
   -6.2602  -21.0867   32.1970 C   0  0  0  0  0  0  0  0  0  0  0  0
   -8.0333  -21.0675   33.0007 C   0  0  0  0  0  0  0  0  0  0  0  0
   -9.8015  -21.0185   32.2067 C   0  0  0  0  0  0  0  0  0  0  0  0
  -10.7319  -22.1835   32.4635 N   0  0  0  0  0  0  0  0  0  0  0  0
  -12.0178  -22.0419   32.9216 C   0  0  0  0  0  0  0  0  0  0  0  0
  -12.3703  -23.2898   33.3736 C   0  0  0  0  0  0  0  0  0  0  0  0
  -11.3911  -24.2039   33.1019 N   0  0  0  0  0  0  0  0  0  0  0  0
  -10.4272  -23.5180   32.5395 C   0  0  0  0  0  0  0  0  0  0  0  0
   -2.7753  -20.7689   30.3673 C   0  0  0  0  0  0  0  0  0  0  0  0
   -0.8622  -20.7351   30.3248 C   0  0  0  0  0  0  0  0  0  0  0  0
   -0.3127  -21.2287   29.0928 C   0  0  0  0  0  0  0  0  0  0  0  0
    0.8513  -20.6906   28.3888 C   0  0  0  0  0  0  0  0  0  0  0  0
    1.6591  -19.6140   28.8337 C   0  0  0  0  0  0  0  0  0  0  0  0
    2.6995  -18.9667   27.8543 N   0  0  0  0  0  0  0  0  0  0  0  0
    2.5859  -19.1521   26.4674 C   0  0  0  0  0  0  0  0  0  0  0  0
    3.4041  -18.4496   25.7188 N   0  0  0  0  0  0  0  0  0  0  0  0
    4.2012  -17.7859   26.5854 C   0  0  0  0  0  0  0  0  0  0  0  0
    5.2528  -16.8956   26.2427 C   0  0  0  0  0  0  0  0  0  0  0  0
    6.0605  -16.3834   27.2424 C   0  0  0  0  0  0  0  0  0  0  0  0
    5.8373  -16.8119   28.5472 C   0  0  0  0  0  0  0  0  0  0  0  0
    4.7673  -17.6905   28.9071 C   0  0  0  0  0  0  0  0  0  0  0  0
    3.8698  -18.1273   27.9191 C   0  0  0  0  0  0  0  0  0  0  0  0
    1.2666  -19.2147   30.1384 C   0  0  0  0  0  0  0  0  0  0  0  0
    0.0365  -19.7519   30.8731 C   0  0  0  0  0  0  0  0  0  0  0  0
   -5.8263  -19.5462   33.1626 H   0  0  0  0  0  0  0  0  0  0  0  0
   -3.9815  -19.4969   32.8625 H   0  0  0  0  0  0  0  0  0  0  0  0
   -5.3590  -18.3861   32.4514 H   0  0  0  0  0  0  0  0  0  0  0  0
   -5.8761  -21.1247   33.1696 H   0  0  0  0  0  0  0  0  0  0  0  0
   -6.6618  -22.0221   31.8994 H   0  0  0  0  0  0  0  0  0  0  0  0
   -7.9713  -20.2426   33.7247 H   0  0  0  0  0  0  0  0  0  0  0  0
   -8.0391  -22.0351   33.5115 H   0  0  0  0  0  0  0  0  0  0  0  0
  -10.2866  -20.1137   32.6111 H   0  0  0  0  0  0  0  0  0  0  0  0
  -10.0010  -20.9325   31.1417 H   0  0  0  0  0  0  0  0  0  0  0  0
  -12.5205  -21.0928   32.9903 H   0  0  0  0  0  0  0  0  0  0  0  0
  -13.2829  -23.5796   33.8764 H   0  0  0  0  0  0  0  0  0  0  0  0
   -9.4833  -23.9595   32.2520 H   0  0  0  0  0  0  0  0  0  0  0  0
   -2.9482  -21.8667   30.2741 H   0  0  0  0  0  0  0  0  0  0  0  0
   -2.6410  -20.5621   29.3324 H   0  0  0  0  0  0  0  0  0  0  0  0
   -0.8323  -22.0029   28.5389 H   0  0  0  0  0  0  0  0  0  0  0  0
    1.0656  -21.1769   27.4370 H   0  0  0  0  0  0  0  0  0  0  0  0
    1.8218  -19.7880   26.0449 H   0  0  0  0  0  0  0  0  0  0  0  0
    5.4254  -16.6539   25.1996 H   0  0  0  0  0  0  0  0  0  0  0  0
    6.8725  -15.7035   27.0099 H   0  0  0  0  0  0  0  0  0  0  0  0
    6.4866  -16.4467   29.3418 H   0  0  0  0  0  0  0  0  0  0  0  0
    4.6372  -17.9826   29.9449 H   0  0  0  0  0  0  0  0  0  0  0  0
    1.7926  -18.3911   30.6220 H   0  0  0  0  0  0  0  0  0  0  0  0
   -0.2553  -19.2282   31.7863 H   0  0  0  0  0  0  0  0  0  0  0  0
  1  2  1  0
  2  3  1  0
  3  4  1  0
  4  5  1  0
  5  6  1  0
  6  7  1  0
  7  8  2  0
  8  9  1  0
  9 10  2  0
  2 11  1  0
 11 12  1  0
 12 13  2  0
 13 14  1  0
 14 15  2  0
 15 16  1  0
 16 17  1  0
 17 18  2  0
 18 19  1  0
 19 20  2  0
 20 21  1  0
 21 22  2  0
 22 23  1  0
 23 24  2  0
 15 25  1  0
 25 26  2  0
 10  6  1  0
 26 12  1  0
 24 16  1  0
 24 19  1  0
  1 27  1  0
  1 28  1  0
  1 29  1  0
  3 30  1  0
  3 31  1  0
  4 32  1  0
  4 33  1  0
  5 34  1  0
  5 35  1  0
  7 36  1  0
  8 37  1  0
 10 38  1  0
 11 39  1  0
 11 40  1  0
 13 41  1  0
 14 42  1  0
 17 43  1  0
 20 44  1  0
 21 45  1  0
 22 46  1  0
 23 47  1  0
 25 48  1  0
 26 49  1  0
M  END
>  <Energy>  (1461) 
745.14874760840246

>  <compound_id>  (1461) 
31643

>  <target_id>  (1461) 
1

>  <reference_id>  (1461) 
55

>  <inspiration_ids>  (1461) 
[55, 35]

>  <energy_score>  (1461) 
652.8821002588727

>  <distance_score>  (1461) 
17.26274176759996

>  <path>  (1461) 
/opt/xchem-fragalysis-2/maxwin/BulkDock/SCRATCH/511017/C31643-P55/C31643-P55.minimised.mol

>  <scratch_subdir>  (1461) 
/opt/xchem-fragalysis-2/maxwin/BulkDock/SCRATCH/511017/C31643-P55

>  <fragmenstein_runtime>  (1461) 
31.12455439567566

>  <fragmenstein_outcome>  (1461) 
too moved

>  <fragmenstein_mode>  (1461) 
expansion

>  <fragmenstein_error>  (1461) 


$$$$
C31643-P35
     RDKit          3D

 49 52  0  0  0  0  0  0  0  0999 V2000
   -2.8444  -21.0135   20.1418 C   0  0  0  0  0  0  0  0  0  0  0  0
   -2.5354  -20.4654   21.4698 N   0  0  0  0  0  0  0  0  0  0  0  0
   -3.0514  -21.3515   22.5462 C   0  0  0  0  0  0  0  0  0  0  0  0
   -4.5835  -21.3958   22.6389 C   0  0  0  0  0  0  0  0  0  0  0  0
   -5.1641  -22.6442   21.9652 C   0  0  0  0  0  0  0  0  0  0  0  0
   -6.5911  -22.5692   21.7255 N   0  0  0  0  0  0  0  0  0  0  0  0
   -7.2207  -21.7264   20.8523 C   0  0  0  0  0  0  0  0  0  0  0  0
   -8.5515  -22.0645   20.9307 C   0  0  0  0  0  0  0  0  0  0  0  0
   -8.7401  -23.0972   21.8120 N   0  0  0  0  0  0  0  0  0  0  0  0
   -7.5408  -23.3887   22.2642 C   0  0  0  0  0  0  0  0  0  0  0  0
   -1.0546  -20.2818   21.6012 C   0  0  0  0  0  0  0  0  0  0  0  0
   -0.3277  -19.2949   20.6427 C   0  0  0  0  0  0  0  0  0  0  0  0
   -0.8926  -18.1856   20.0143 C   0  0  0  0  0  0  0  0  0  0  0  0
   -0.0976  -17.2429   19.2459 C   0  0  0  0  0  0  0  0  0  0  0  0
    1.3250  -17.2988   19.1110 C   0  0  0  0  0  0  0  0  0  0  0  0
    2.1146  -16.1994   18.4144 N   0  0  0  0  0  0  0  0  0  0  0  0
    1.5689  -15.4043   17.3982 C   0  0  0  0  0  0  0  0  0  0  0  0
    2.2953  -14.3679   17.0437 N   0  0  0  0  0  0  0  0  0  0  0  0
    3.4365  -14.4693   17.7786 C   0  0  0  0  0  0  0  0  0  0  0  0
    4.5394  -13.5834   17.7616 C   0  0  0  0  0  0  0  0  0  0  0  0
    5.6373  -13.8448   18.5742 C   0  0  0  0  0  0  0  0  0  0  0  0
    5.6283  -14.9781   19.3841 C   0  0  0  0  0  0  0  0  0  0  0  0
    4.5314  -15.8765   19.4176 C   0  0  0  0  0  0  0  0  0  0  0  0
    3.4099  -15.6184   18.6046 C   0  0  0  0  0  0  0  0  0  0  0  0
    1.8775  -18.4291   19.7203 C   0  0  0  0  0  0  0  0  0  0  0  0
    1.0671  -19.4068   20.4338 C   0  0  0  0  0  0  0  0  0  0  0  0
   -2.4674  -22.0353   20.0204 H   0  0  0  0  0  0  0  0  0  0  0  0
   -2.4270  -20.4040   19.3350 H   0  0  0  0  0  0  0  0  0  0  0  0
   -3.9243  -21.0101   19.9668 H   0  0  0  0  0  0  0  0  0  0  0  0
   -2.6718  -20.9592   23.4866 H   0  0  0  0  0  0  0  0  0  0  0  0
   -2.6340  -22.3625   22.4522 H   0  0  0  0  0  0  0  0  0  0  0  0
   -5.0206  -20.4788   22.2265 H   0  0  0  0  0  0  0  0  0  0  0  0
   -4.8442  -21.4008   23.6919 H   0  0  0  0  0  0  0  0  0  0  0  0
   -4.9721  -23.5256   22.5886 H   0  0  0  0  0  0  0  0  0  0  0  0
   -4.7064  -22.8402   20.9909 H   0  0  0  0  0  0  0  0  0  0  0  0
   -6.6952  -20.9832   20.2699 H   0  0  0  0  0  0  0  0  0  0  0  0
   -9.3823  -21.6235   20.3956 H   0  0  0  0  0  0  0  0  0  0  0  0
   -7.3104  -24.1661   22.9807 H   0  0  0  0  0  0  0  0  0  0  0  0
   -0.8304  -19.9336   22.6149 H   0  0  0  0  0  0  0  0  0  0  0  0
   -0.5709  -21.2621   21.4891 H   0  0  0  0  0  0  0  0  0  0  0  0
   -1.9602  -17.9942   20.1062 H   0  0  0  0  0  0  0  0  0  0  0  0
   -0.6485  -16.4089   18.8115 H   0  0  0  0  0  0  0  0  0  0  0  0
    0.6026  -15.6424   16.9752 H   0  0  0  0  0  0  0  0  0  0  0  0
    4.5158  -12.7144   17.1126 H   0  0  0  0  0  0  0  0  0  0  0  0
    6.4925  -13.1754   18.5710 H   0  0  0  0  0  0  0  0  0  0  0  0
    6.4906  -15.1835   20.0172 H   0  0  0  0  0  0  0  0  0  0  0  0
    4.5728  -16.7462   20.0641 H   0  0  0  0  0  0  0  0  0  0  0  0
    2.9497  -18.6086   19.6728 H   0  0  0  0  0  0  0  0  0  0  0  0
    1.6033  -20.2334   20.9045 H   0  0  0  0  0  0  0  0  0  0  0  0
  1  2  1  0
  2  3  1  0
  3  4  1  0
  4  5  1  0
  5  6  1  0
  6  7  1  0
  7  8  2  0
  8  9  1  0
  9 10  2  0
  2 11  1  0
 11 12  1  0
 12 13  2  0
 13 14  1  0
 14 15  2  0
 15 16  1  0
 16 17  1  0
 17 18  2  0
 18 19  1  0
 19 20  2  0
 20 21  1  0
 21 22  2  0
 22 23  1  0
 23 24  2  0
 15 25  1  0
 25 26  2  0
 10  6  1  0
 26 12  1  0
 24 16  1  0
 24 19  1  0
  1 27  1  0
  1 28  1  0
  1 29  1  0
  3 30  1  0
  3 31  1  0
  4 32  1  0
  4 33  1  0
  5 34  1  0
  5 35  1  0
  7 36  1  0
  8 37  1  0
 10 38  1  0
 11 39  1  0
 11 40  1  0
 13 41  1  0
 14 42  1  0
 17 43  1  0
 20 44  1  0
 21 45  1  0
 22 46  1  0
 23 47  1  0
 25 48  1  0
 26 49  1  0
M  END
>  <Energy>  (1462) 
91.467694402876859

>  <compound_id>  (1462) 
31643

>  <target_id>  (1462) 
1

>  <reference_id>  (1462) 
35

>  <inspiration_ids>  (1462) 
[55, 35]

>  <energy_score>  (1462) 
-0.7989529466395879

>  <distance_score>  (1462) 
16.946224383005248

>  <path>  (1462) 
/opt/xchem-fragalysis-2/maxwin/BulkDock/SCRATCH/511017/C31643-P35/C31643-P35.minimised.mol

>  <scratch_subdir>  (1462) 
/opt/xchem-fragalysis-2/maxwin/BulkDock/SCRATCH/511017/C31643-P35

>  <fragmenstein_runtime>  (1462) 
38.75211691856384

>  <fragmenstein_outcome>  (1462) 
too moved

>  <fragmenstein_mode>  (1462) 
expansion

>  <fragmenstein_error>  (1462) 


$$$$
C31644-P55
     RDKit          3D

 49 52  0  0  0  0  0  0  0  0999 V2000
   -6.5782  -18.9168   33.8022 C   0  0  0  0  0  0  0  0  0  0  0  0
   -6.3525  -20.3390   33.0730 C   0  0  0  0  0  0  0  0  0  0  0  0
   -5.0136  -19.9417   31.9118 C   0  0  0  0  0  0  0  0  0  0  0  0
   -3.6879  -20.7145   31.6610 N   0  0  0  0  0  0  0  0  0  0  0  0
   -2.9798  -21.0793   30.3748 C   0  0  0  0  0  0  0  0  0  0  0  0
   -1.6144  -20.5037   29.8236 C   0  0  0  0  0  0  0  0  0  0  0  0
   -1.3437  -20.3820   28.4191 C   0  0  0  0  0  0  0  0  0  0  0  0
   -0.0526  -19.9376   27.8171 C   0  0  0  0  0  0  0  0  0  0  0  0
    1.0614  -19.5761   28.5955 C   0  0  0  0  0  0  0  0  0  0  0  0
    2.3660  -18.8950   28.0930 N   0  0  0  0  0  0  0  0  0  0  0  0
    3.2345  -18.2579   28.9768 C   0  0  0  0  0  0  0  0  0  0  0  0
    4.2207  -17.5855   28.4289 N   0  0  0  0  0  0  0  0  0  0  0  0
    4.1389  -17.8260   27.1070 C   0  0  0  0  0  0  0  0  0  0  0  0
    5.0426  -17.3676   26.1131 C   0  0  0  0  0  0  0  0  0  0  0  0
    4.9412  -17.8662   24.8238 C   0  0  0  0  0  0  0  0  0  0  0  0
    3.9357  -18.7903   24.5580 C   0  0  0  0  0  0  0  0  0  0  0  0
    2.9674  -19.1966   25.5292 C   0  0  0  0  0  0  0  0  0  0  0  0
    3.0528  -18.6938   26.8387 C   0  0  0  0  0  0  0  0  0  0  0  0
    0.8029  -19.7936   29.9965 C   0  0  0  0  0  0  0  0  0  0  0  0
   -0.4746  -20.2458   30.5884 C   0  0  0  0  0  0  0  0  0  0  0  0
   -7.8853  -21.4309   33.1972 C   0  0  0  0  0  0  0  0  0  0  0  0
   -8.9013  -22.8728   33.1178 N   0  0  0  0  0  0  0  0  0  0  0  0
   -8.7638  -24.2075   32.6687 C   0  0  0  0  0  0  0  0  0  0  0  0
  -10.0025  -24.7863   32.5246 C   0  0  0  0  0  0  0  0  0  0  0  0
  -10.9625  -23.8489   32.5346 N   0  0  0  0  0  0  0  0  0  0  0  0
  -10.3138  -22.7266   32.6761 C   0  0  0  0  0  0  0  0  0  0  0  0
   -7.4768  -18.9152   34.4135 H   0  0  0  0  0  0  0  0  0  0  0  0
   -6.6731  -18.0913   33.0862 H   0  0  0  0  0  0  0  0  0  0  0  0
   -5.7170  -18.6360   34.4201 H   0  0  0  0  0  0  0  0  0  0  0  0
   -5.8769  -21.0120   33.6318 H   0  0  0  0  0  0  0  0  0  0  0  0
   -4.5469  -19.1051   32.4628 H   0  0  0  0  0  0  0  0  0  0  0  0
   -5.3606  -19.3174   31.1053 H   0  0  0  0  0  0  0  0  0  0  0  0
   -3.8115  -21.5994   32.1439 H   0  0  0  0  0  0  0  0  0  0  0  0
   -3.6449  -21.2095   29.5312 H   0  0  0  0  0  0  0  0  0  0  0  0
   -2.6807  -22.1239   30.5631 H   0  0  0  0  0  0  0  0  0  0  0  0
   -2.1514  -20.5979   27.7149 H   0  0  0  0  0  0  0  0  0  0  0  0
   -0.0159  -19.8336   26.7343 H   0  0  0  0  0  0  0  0  0  0  0  0
    3.0711  -18.2822   30.0436 H   0  0  0  0  0  0  0  0  0  0  0  0
    5.8378  -16.6860   26.3949 H   0  0  0  0  0  0  0  0  0  0  0  0
    5.6417  -17.5655   24.0526 H   0  0  0  0  0  0  0  0  0  0  0  0
    3.8643  -19.2163   23.5570 H   0  0  0  0  0  0  0  0  0  0  0  0
    2.1986  -19.9113   25.2496 H   0  0  0  0  0  0  0  0  0  0  0  0
    1.5890  -19.6045   30.7273 H   0  0  0  0  0  0  0  0  0  0  0  0
   -0.5248  -20.3558   31.6719 H   0  0  0  0  0  0  0  0  0  0  0  0
   -7.3098  -21.9159   32.4329 H   0  0  0  0  0  0  0  0  0  0  0  0
   -8.6668  -20.7730   32.8380 H   0  0  0  0  0  0  0  0  0  0  0  0
   -7.8282  -24.7040   32.4814 H   0  0  0  0  0  0  0  0  0  0  0  0
  -10.2279  -25.8203   32.3005 H   0  0  0  0  0  0  0  0  0  0  0  0
  -10.7453  -21.7572   32.4522 H   0  0  0  0  0  0  0  0  0  0  0  0
  1  2  1  0
  2  3  1  0
  3  4  1  0
  4  5  1  0
  5  6  1  0
  6  7  2  0
  7  8  1  0
  8  9  2  0
  9 10  1  0
 10 11  1  0
 11 12  2  0
 12 13  1  0
 13 14  2  0
 14 15  1  0
 15 16  2  0
 16 17  1  0
 17 18  2  0
  9 19  1  0
 19 20  2  0
  2 21  1  0
 21 22  1  0
 22 23  1  0
 23 24  2  0
 24 25  1  0
 25 26  2  0
 20  6  1  0
 26 22  1  0
 18 10  1  0
 18 13  1  0
  1 27  1  0
  1 28  1  0
  1 29  1  0
  2 30  1  0
  3 31  1  0
  3 32  1  0
  4 33  1  0
  5 34  1  0
  5 35  1  0
  7 36  1  0
  8 37  1  0
 11 38  1  0
 14 39  1  0
 15 40  1  0
 16 41  1  0
 17 42  1  0
 19 43  1  0
 20 44  1  0
 21 45  1  0
 21 46  1  0
 23 47  1  0
 24 48  1  0
 26 49  1  0
M  END
>  <Energy>  (1463) 
339.48251094124032

>  <compound_id>  (1463) 
31644

>  <target_id>  (1463) 
1

>  <reference_id>  (1463) 
55

>  <inspiration_ids>  (1463) 
[55, 35]

>  <energy_score>  (1463) 
224.66275577295778

>  <distance_score>  (1463) 
17.340341442915523

>  <path>  (1463) 
/opt/xchem-fragalysis-2/maxwin/BulkDock/SCRATCH/511017/C31644-P55/C31644-P55.minimised.mol

>  <scratch_subdir>  (1463) 
/opt/xchem-fragalysis-2/maxwin/BulkDock/SCRATCH/511017/C31644-P55

>  <fragmenstein_runtime>  (1463) 
19.647499561309814

>  <fragmenstein_outcome>  (1463) 
too moved

>  <fragmenstein_mode>  (1463) 
expansion

>  <fragmenstein_error>  (1463) 


$$$$
C31644-P35
     RDKit          3D

 49 52  0  0  0  0  0  0  0  0999 V2000
  -15.7561  -29.0572   30.5697 C   0  0  0  0  0  0  0  0  0  0  0  0
  -14.8125  -27.8788   30.2988 C   0  0  0  0  0  0  0  0  0  0  0  0
  -14.1412  -27.3421   31.5653 C   0  0  0  0  0  0  0  0  0  0  0  0
  -13.4562  -28.3258   32.4347 N   0  0  0  0  0  0  0  0  0  0  0  0
  -12.3761  -29.0968   31.8180 C   0  0  0  0  0  0  0  0  0  0  0  0
  -11.3908  -28.2799   31.0384 C   0  0  0  0  0  0  0  0  0  0  0  0
  -10.7293  -27.1785   31.5846 C   0  0  0  0  0  0  0  0  0  0  0  0
  -10.1751  -26.2322   30.7354 C   0  0  0  0  0  0  0  0  0  0  0  0
  -10.3692  -26.3622   29.3592 C   0  0  0  0  0  0  0  0  0  0  0  0
  -10.4639  -25.2076   28.5369 N   0  0  0  0  0  0  0  0  0  0  0  0
  -10.6934  -25.1947   27.1816 C   0  0  0  0  0  0  0  0  0  0  0  0
  -10.6754  -23.9966   26.6702 N   0  0  0  0  0  0  0  0  0  0  0  0
  -10.8571  -23.2267   27.7611 C   0  0  0  0  0  0  0  0  0  0  0  0
  -11.3036  -21.9378   27.7870 C   0  0  0  0  0  0  0  0  0  0  0  0
  -11.7118  -21.4051   29.0009 C   0  0  0  0  0  0  0  0  0  0  0  0
  -11.6182  -22.0720   30.1910 C   0  0  0  0  0  0  0  0  0  0  0  0
  -11.2220  -23.3903   30.1657 C   0  0  0  0  0  0  0  0  0  0  0  0
  -10.7910  -23.9342   28.9436 C   0  0  0  0  0  0  0  0  0  0  0  0
  -10.7261  -27.5992   28.8279 C   0  0  0  0  0  0  0  0  0  0  0  0
  -11.2421  -28.5600   29.6782 C   0  0  0  0  0  0  0  0  0  0  0  0
  -15.5225  -26.7430   29.5385 C   0  0  0  0  0  0  0  0  0  0  0  0
  -16.7960  -26.3312   30.0921 N   0  0  0  0  0  0  0  0  0  0  0  0
  -17.0009  -25.4779   31.1386 C   0  0  0  0  0  0  0  0  0  0  0  0
  -18.3635  -25.3104   31.2061 C   0  0  0  0  0  0  0  0  0  0  0  0
  -18.9809  -25.9959   30.1913 N   0  0  0  0  0  0  0  0  0  0  0  0
  -18.0214  -26.6497   29.5756 C   0  0  0  0  0  0  0  0  0  0  0  0
  -16.2867  -29.3474   29.6565 H   0  0  0  0  0  0  0  0  0  0  0  0
  -16.4983  -28.8136   31.3370 H   0  0  0  0  0  0  0  0  0  0  0  0
  -15.2042  -29.9382   30.9112 H   0  0  0  0  0  0  0  0  0  0  0  0
  -14.0304  -28.2463   29.6254 H   0  0  0  0  0  0  0  0  0  0  0  0
  -13.4615  -26.5284   31.2897 H   0  0  0  0  0  0  0  0  0  0  0  0
  -14.9125  -26.8907   32.1968 H   0  0  0  0  0  0  0  0  0  0  0  0
  -14.1667  -28.9988   32.7373 H   0  0  0  0  0  0  0  0  0  0  0  0
  -12.8202  -29.8642   31.1718 H   0  0  0  0  0  0  0  0  0  0  0  0
  -11.8657  -29.6585   32.6003 H   0  0  0  0  0  0  0  0  0  0  0  0
  -10.7458  -26.9808   32.6537 H   0  0  0  0  0  0  0  0  0  0  0  0
   -9.7081  -25.3541   31.1729 H   0  0  0  0  0  0  0  0  0  0  0  0
  -10.8495  -26.0980   26.6131 H   0  0  0  0  0  0  0  0  0  0  0  0
  -11.4813  -21.4702   26.8368 H   0  0  0  0  0  0  0  0  0  0  0  0
  -12.2584  -20.4822   28.9901 H   0  0  0  0  0  0  0  0  0  0  0  0
  -11.9686  -21.6372   31.1219 H   0  0  0  0  0  0  0  0  0  0  0  0
  -11.2903  -23.9653   31.0826 H   0  0  0  0  0  0  0  0  0  0  0  0
  -10.7647  -27.8060   27.7641 H   0  0  0  0  0  0  0  0  0  0  0  0
  -11.6619  -29.4666   29.2460 H   0  0  0  0  0  0  0  0  0  0  0  0
  -15.7122  -27.0621   28.5056 H   0  0  0  0  0  0  0  0  0  0  0  0
  -14.8879  -25.8504   29.4768 H   0  0  0  0  0  0  0  0  0  0  0  0
  -16.1973  -25.0441   31.7191 H   0  0  0  0  0  0  0  0  0  0  0  0
  -18.9241  -24.7031   31.9059 H   0  0  0  0  0  0  0  0  0  0  0  0
  -18.1541  -27.3243   28.7388 H   0  0  0  0  0  0  0  0  0  0  0  0
  1  2  1  0
  2  3  1  0
  3  4  1  0
  4  5  1  0
  5  6  1  0
  6  7  2  0
  7  8  1  0
  8  9  2  0
  9 10  1  0
 10 11  1  0
 11 12  2  0
 12 13  1  0
 13 14  2  0
 14 15  1  0
 15 16  2  0
 16 17  1  0
 17 18  2  0
  9 19  1  0
 19 20  2  0
  2 21  1  0
 21 22  1  0
 22 23  1  0
 23 24  2  0
 24 25  1  0
 25 26  2  0
 20  6  1  0
 26 22  1  0
 18 10  1  0
 18 13  1  0
  1 27  1  0
  1 28  1  0
  1 29  1  0
  2 30  1  0
  3 31  1  0
  3 32  1  0
  4 33  1  0
  5 34  1  0
  5 35  1  0
  7 36  1  0
  8 37  1  0
 11 38  1  0
 14 39  1  0
 15 40  1  0
 16 41  1  0
 17 42  1  0
 19 43  1  0
 20 44  1  0
 21 45  1  0
 21 46  1  0
 23 47  1  0
 24 48  1  0
 26 49  1  0
M  END
>  <Energy>  (1464) 
92.389219760064847

>  <compound_id>  (1464) 
31644

>  <target_id>  (1464) 
1

>  <reference_id>  (1464) 
35

>  <inspiration_ids>  (1464) 
[55, 35]

>  <energy_score>  (1464) 
-22.4305354082166

>  <distance_score>  (1464) 
25.19445799794053

>  <path>  (1464) 
/opt/xchem-fragalysis-2/maxwin/BulkDock/SCRATCH/511017/C31644-P35/C31644-P35.minimised.mol

>  <scratch_subdir>  (1464) 
/opt/xchem-fragalysis-2/maxwin/BulkDock/SCRATCH/511017/C31644-P35

>  <fragmenstein_runtime>  (1464) 
27.457386255264282

>  <fragmenstein_outcome>  (1464) 
too moved

>  <fragmenstein_mode>  (1464) 
expansion

>  <fragmenstein_error>  (1464) 


$$$$
C31645-P55
     RDKit          3D

 55 58  0  0  0  0  0  0  0  0999 V2000
  -15.5848  -19.3163   30.8141 C   0  0  0  0  0  0  0  0  0  0  0  0
  -15.8213  -17.8486   29.3297 C   0  0  0  0  0  0  0  0  0  0  0  0
  -17.3312  -18.1941   30.6345 C   0  0  0  0  0  0  0  0  0  0  0  0
  -16.1103  -17.1901   27.6641 C   0  0  0  0  0  0  0  0  0  0  0  0
  -14.1416  -16.9097   28.2798 C   0  0  0  0  0  0  0  0  0  0  0  0
  -12.5734  -18.1744   28.8590 C   0  0  0  0  0  0  0  0  0  0  0  0
  -12.4010  -20.0735   29.1629 N   0  0  0  0  0  0  0  0  0  0  0  0
  -12.0643  -21.2538   28.3033 C   0  0  0  0  0  0  0  0  0  0  0  0
  -11.9383  -22.4317   28.9785 C   0  0  0  0  0  0  0  0  0  0  0  0
  -11.9716  -22.2029   30.2736 N   0  0  0  0  0  0  0  0  0  0  0  0
  -11.8337  -20.9045   30.3306 C   0  0  0  0  0  0  0  0  0  0  0  0
  -12.8015  -15.8511   29.1973 N   0  0  0  0  0  0  0  0  0  0  0  0
  -11.5735  -14.5057   28.6931 C   0  0  0  0  0  0  0  0  0  0  0  0
  -10.9045  -13.4730   27.5601 C   0  0  0  0  0  0  0  0  0  0  0  0
  -10.1167  -13.8371   26.4160 C   0  0  0  0  0  0  0  0  0  0  0  0
   -9.2135  -12.9105   25.6519 C   0  0  0  0  0  0  0  0  0  0  0  0
   -8.9966  -11.5648   26.0163 C   0  0  0  0  0  0  0  0  0  0  0  0
   -8.0486  -10.5213   25.3391 N   0  0  0  0  0  0  0  0  0  0  0  0
   -7.6810   -9.3167   25.9656 C   0  0  0  0  0  0  0  0  0  0  0  0
   -6.9891   -8.4719   25.2291 N   0  0  0  0  0  0  0  0  0  0  0  0
   -6.7744   -9.1189   24.0517 C   0  0  0  0  0  0  0  0  0  0  0  0
   -6.0175   -8.6373   22.9497 C   0  0  0  0  0  0  0  0  0  0  0  0
   -5.9056   -9.4152   21.8073 C   0  0  0  0  0  0  0  0  0  0  0  0
   -6.5487  -10.6511   21.7825 C   0  0  0  0  0  0  0  0  0  0  0  0
   -7.2610  -11.1775   22.9006 C   0  0  0  0  0  0  0  0  0  0  0  0
   -7.3810  -10.3999   24.0662 C   0  0  0  0  0  0  0  0  0  0  0  0
   -9.7675  -11.2296   27.1701 C   0  0  0  0  0  0  0  0  0  0  0  0
  -10.6828  -12.1296   27.8997 C   0  0  0  0  0  0  0  0  0  0  0  0
  -14.9701  -20.1644   30.5039 H   0  0  0  0  0  0  0  0  0  0  0  0
  -16.4342  -20.0578   30.9235 H   0  0  0  0  0  0  0  0  0  0  0  0
  -15.5102  -19.1657   31.9038 H   0  0  0  0  0  0  0  0  0  0  0  0
  -17.7837  -19.1694   30.4754 H   0  0  0  0  0  0  0  0  0  0  0  0
  -17.1398  -18.2723   31.7103 H   0  0  0  0  0  0  0  0  0  0  0  0
  -18.1858  -17.4711   30.5913 H   0  0  0  0  0  0  0  0  0  0  0  0
  -16.9707  -17.1373   27.0150 H   0  0  0  0  0  0  0  0  0  0  0  0
  -15.4213  -17.6221   26.9198 H   0  0  0  0  0  0  0  0  0  0  0  0
  -16.0099  -16.1045   27.6788 H   0  0  0  0  0  0  0  0  0  0  0  0
  -14.6082  -16.0358   28.7633 H   0  0  0  0  0  0  0  0  0  0  0  0
  -12.1568  -17.5842   29.6164 H   0  0  0  0  0  0  0  0  0  0  0  0
  -11.6753  -17.9270   28.3299 H   0  0  0  0  0  0  0  0  0  0  0  0
  -11.8954  -21.1877   27.2432 H   0  0  0  0  0  0  0  0  0  0  0  0
  -11.7798  -23.4158   28.5589 H   0  0  0  0  0  0  0  0  0  0  0  0
  -11.3913  -20.5066   31.2350 H   0  0  0  0  0  0  0  0  0  0  0  0
  -13.1307  -15.6543   30.1500 H   0  0  0  0  0  0  0  0  0  0  0  0
  -11.2360  -15.2531   27.9529 H   0  0  0  0  0  0  0  0  0  0  0  0
  -11.0141  -14.3159   29.5848 H   0  0  0  0  0  0  0  0  0  0  0  0
  -10.1164  -14.8776   26.0875 H   0  0  0  0  0  0  0  0  0  0  0  0
   -8.6677  -13.3344   24.8109 H   0  0  0  0  0  0  0  0  0  0  0  0
   -7.9525   -9.1236   26.9934 H   0  0  0  0  0  0  0  0  0  0  0  0
   -5.5540   -7.6593   23.0132 H   0  0  0  0  0  0  0  0  0  0  0  0
   -5.3421   -9.0669   20.9487 H   0  0  0  0  0  0  0  0  0  0  0  0
   -6.4682  -11.2658   20.8875 H   0  0  0  0  0  0  0  0  0  0  0  0
   -7.7204  -12.1575   22.8331 H   0  0  0  0  0  0  0  0  0  0  0  0
   -9.7130  -10.2197   27.5782 H   0  0  0  0  0  0  0  0  0  0  0  0
  -11.1663  -11.7201   28.7860 H   0  0  0  0  0  0  0  0  0  0  0  0
  1  2  1  0
  2  3  1  0
  2  4  1  0
  2  5  1  0
  5  6  1  0
  6  7  1  0
  7  8  1  0
  8  9  2  0
  9 10  1  0
 10 11  2  0
  5 12  1  0
 12 13  1  0
 13 14  1  0
 14 15  2  0
 15 16  1  0
 16 17  2  0
 17 18  1  0
 18 19  1  0
 19 20  2  0
 20 21  1  0
 21 22  2  0
 22 23  1  0
 23 24  2  0
 24 25  1  0
 25 26  2  0
 17 27  1  0
 27 28  2  0
 11  7  1  0
 28 14  1  0
 26 18  1  0
 26 21  1  0
  1 29  1  0
  1 30  1  0
  1 31  1  0
  3 32  1  0
  3 33  1  0
  3 34  1  0
  4 35  1  0
  4 36  1  0
  4 37  1  0
  5 38  1  0
  6 39  1  0
  6 40  1  0
  8 41  1  0
  9 42  1  0
 11 43  1  0
 12 44  1  0
 13 45  1  0
 13 46  1  0
 15 47  1  0
 16 48  1  0
 19 49  1  0
 22 50  1  0
 23 51  1  0
 24 52  1  0
 25 53  1  0
 27 54  1  0
 28 55  1  0
M  END
>  <Energy>  (1465) 
1119.58715691613

>  <compound_id>  (1465) 
31645

>  <target_id>  (1465) 
1

>  <reference_id>  (1465) 
55

>  <inspiration_ids>  (1465) 
[55, 35]

>  <energy_score>  (1465) 
972.1192562775998

>  <distance_score>  (1465) 
18.17815168910149

>  <path>  (1465) 
/opt/xchem-fragalysis-2/maxwin/BulkDock/SCRATCH/511017/C31645-P55/C31645-P55.minimised.mol

>  <scratch_subdir>  (1465) 
/opt/xchem-fragalysis-2/maxwin/BulkDock/SCRATCH/511017/C31645-P55

>  <fragmenstein_runtime>  (1465) 
31.133999347686768

>  <fragmenstein_outcome>  (1465) 
too moved

>  <fragmenstein_mode>  (1465) 
expansion

>  <fragmenstein_error>  (1465) 


$$$$
C31645-P35
     RDKit          3D

 55 58  0  0  0  0  0  0  0  0999 V2000
  -11.2025  -22.7350   34.4999 C   0  0  0  0  0  0  0  0  0  0  0  0
   -9.7052  -23.2691   34.3386 C   0  0  0  0  0  0  0  0  0  0  0  0
   -9.7482  -24.7563   33.9342 C   0  0  0  0  0  0  0  0  0  0  0  0
   -9.3869  -22.7768   35.7535 C   0  0  0  0  0  0  0  0  0  0  0  0
   -8.7463  -22.6002   33.2073 C   0  0  0  0  0  0  0  0  0  0  0  0
  -10.1270  -21.9761   32.2675 C   0  0  0  0  0  0  0  0  0  0  0  0
  -11.0703  -22.8708   31.5931 N   0  0  0  0  0  0  0  0  0  0  0  0
  -12.3914  -22.5668   31.3591 C   0  0  0  0  0  0  0  0  0  0  0  0
  -12.9118  -23.6460   30.6892 C   0  0  0  0  0  0  0  0  0  0  0  0
  -11.9436  -24.5809   30.4595 N   0  0  0  0  0  0  0  0  0  0  0  0
  -10.8609  -24.1031   31.0324 C   0  0  0  0  0  0  0  0  0  0  0  0
   -7.3343  -23.3751   32.2378 N   0  0  0  0  0  0  0  0  0  0  0  0
   -5.4206  -23.7215   31.7616 C   0  0  0  0  0  0  0  0  0  0  0  0
   -3.7272  -23.0242   31.0268 C   0  0  0  0  0  0  0  0  0  0  0  0
   -3.1271  -21.7984   31.4929 C   0  0  0  0  0  0  0  0  0  0  0  0
   -1.9572  -21.0378   30.9242 C   0  0  0  0  0  0  0  0  0  0  0  0
   -1.2566  -21.3485   29.7348 C   0  0  0  0  0  0  0  0  0  0  0  0
   -0.0385  -20.4784   29.2352 N   0  0  0  0  0  0  0  0  0  0  0  0
    0.7293  -19.6981   30.1272 C   0  0  0  0  0  0  0  0  0  0  0  0
    1.6987  -18.9835   29.5892 N   0  0  0  0  0  0  0  0  0  0  0  0
    1.6910  -19.3062   28.2672 C   0  0  0  0  0  0  0  0  0  0  0  0
    2.5894  -18.8346   27.2744 C   0  0  0  0  0  0  0  0  0  0  0  0
    2.4566  -19.2871   25.9674 C   0  0  0  0  0  0  0  0  0  0  0  0
    1.3924  -20.1314   25.6548 C   0  0  0  0  0  0  0  0  0  0  0  0
    0.4690  -20.5973   26.6329 C   0  0  0  0  0  0  0  0  0  0  0  0
    0.6386  -20.2182   27.9796 C   0  0  0  0  0  0  0  0  0  0  0  0
   -1.8388  -22.4966   29.1656 C   0  0  0  0  0  0  0  0  0  0  0  0
   -3.0036  -23.3118   29.7944 C   0  0  0  0  0  0  0  0  0  0  0  0
  -11.6674  -23.0756   35.4315 H   0  0  0  0  0  0  0  0  0  0  0  0
  -11.8811  -23.0595   33.7254 H   0  0  0  0  0  0  0  0  0  0  0  0
  -11.2687  -21.6443   34.6158 H   0  0  0  0  0  0  0  0  0  0  0  0
   -9.1865  -24.9850   33.0247 H   0  0  0  0  0  0  0  0  0  0  0  0
   -9.3158  -25.4165   34.6754 H   0  0  0  0  0  0  0  0  0  0  0  0
  -10.7452  -25.0853   33.6483 H   0  0  0  0  0  0  0  0  0  0  0  0
  -10.1181  -23.0959   36.5013 H   0  0  0  0  0  0  0  0  0  0  0  0
   -8.4473  -23.0744   36.1465 H   0  0  0  0  0  0  0  0  0  0  0  0
   -9.3983  -21.6765   35.8009 H   0  0  0  0  0  0  0  0  0  0  0  0
   -8.2847  -21.6694   33.5568 H   0  0  0  0  0  0  0  0  0  0  0  0
  -10.6908  -21.2883   32.8995 H   0  0  0  0  0  0  0  0  0  0  0  0
   -9.8859  -21.2160   31.5346 H   0  0  0  0  0  0  0  0  0  0  0  0
  -12.8474  -21.6711   31.7435 H   0  0  0  0  0  0  0  0  0  0  0  0
  -13.9345  -23.8016   30.3729 H   0  0  0  0  0  0  0  0  0  0  0  0
   -9.9023  -24.6063   31.0434 H   0  0  0  0  0  0  0  0  0  0  0  0
   -7.0245  -22.3748   32.0371 H   0  0  0  0  0  0  0  0  0  0  0  0
   -4.9036  -22.8740   32.2655 H   0  0  0  0  0  0  0  0  0  0  0  0
   -5.3544  -24.6679   32.2703 H   0  0  0  0  0  0  0  0  0  0  0  0
   -3.6069  -21.2398   32.2761 H   0  0  0  0  0  0  0  0  0  0  0  0
   -1.7075  -20.1242   31.4697 H   0  0  0  0  0  0  0  0  0  0  0  0
    0.5072  -19.7082   31.1853 H   0  0  0  0  0  0  0  0  0  0  0  0
    3.3847  -18.1515   27.5550 H   0  0  0  0  0  0  0  0  0  0  0  0
    3.1461  -18.9619   25.1933 H   0  0  0  0  0  0  0  0  0  0  0  0
    1.2703  -20.4576   24.6215 H   0  0  0  0  0  0  0  0  0  0  0  0
   -0.3398  -21.2612   26.3417 H   0  0  0  0  0  0  0  0  0  0  0  0
   -1.4424  -22.8811   28.2241 H   0  0  0  0  0  0  0  0  0  0  0  0
   -3.2848  -24.1301   29.1332 H   0  0  0  0  0  0  0  0  0  0  0  0
  1  2  1  0
  2  3  1  0
  2  4  1  0
  2  5  1  0
  5  6  1  0
  6  7  1  0
  7  8  1  0
  8  9  2  0
  9 10  1  0
 10 11  2  0
  5 12  1  0
 12 13  1  0
 13 14  1  0
 14 15  2  0
 15 16  1  0
 16 17  2  0
 17 18  1  0
 18 19  1  0
 19 20  2  0
 20 21  1  0
 21 22  2  0
 22 23  1  0
 23 24  2  0
 24 25  1  0
 25 26  2  0
 17 27  1  0
 27 28  2  0
 11  7  1  0
 28 14  1  0
 26 18  1  0
 26 21  1  0
  1 29  1  0
  1 30  1  0
  1 31  1  0
  3 32  1  0
  3 33  1  0
  3 34  1  0
  4 35  1  0
  4 36  1  0
  4 37  1  0
  5 38  1  0
  6 39  1  0
  6 40  1  0
  8 41  1  0
  9 42  1  0
 11 43  1  0
 12 44  1  0
 13 45  1  0
 13 46  1  0
 15 47  1  0
 16 48  1  0
 19 49  1  0
 22 50  1  0
 23 51  1  0
 24 52  1  0
 25 53  1  0
 27 54  1  0
 28 55  1  0
M  END
>  <Energy>  (1466) 
552.9502789731381

>  <compound_id>  (1466) 
31645

>  <target_id>  (1466) 
1

>  <reference_id>  (1466) 
35

>  <inspiration_ids>  (1466) 
[55, 35]

>  <energy_score>  (1466) 
405.4823783346176

>  <distance_score>  (1466) 
18.479753865365463

>  <path>  (1466) 
/opt/xchem-fragalysis-2/maxwin/BulkDock/SCRATCH/511017/C31645-P35/C31645-P35.minimised.mol

>  <scratch_subdir>  (1466) 
/opt/xchem-fragalysis-2/maxwin/BulkDock/SCRATCH/511017/C31645-P35

>  <fragmenstein_runtime>  (1466) 
35.07393431663513

>  <fragmenstein_outcome>  (1466) 
too moved

>  <fragmenstein_mode>  (1466) 
expansion

>  <fragmenstein_error>  (1466) 


$$$$
C13080-P55
     RDKit          3D

 45 48  0  0  0  0  0  0  0  0999 V2000
   -8.7447  -21.6600   26.0479 C   0  0  0  0  0  0  0  0  0  0  0  0
   -9.3048  -21.0307   24.7711 C   0  0  0  0  0  0  0  0  0  0  0  0
   -8.3432  -21.2436   23.5691 C   0  0  0  0  0  0  0  0  0  0  0  0
   -8.7009  -21.8984   22.6339 O   0  0  0  0  0  0  0  0  0  0  0  0
   -7.1007  -20.5579   23.8148 N   0  0  0  0  0  0  0  0  0  0  0  0
   -5.8823  -20.5257   23.0639 C   0  0  0  0  0  0  0  0  0  0  0  0
   -5.0978  -19.2827   23.3417 C   0  0  0  0  0  0  0  0  0  0  0  0
   -5.1572  -17.9066   22.1446 C   0  0  0  0  0  0  0  0  0  0  0  0
   -4.0516  -16.3976   22.2491 C   0  0  0  0  0  0  0  0  0  0  0  0
   -2.9553  -15.8208   23.8196 C   0  0  0  0  0  0  0  0  0  0  0  0
   -1.4290  -14.8317   22.8864 N   0  0  0  0  0  0  0  0  0  0  0  0
   -1.9348  -14.7371   21.1100 C   0  0  0  0  0  0  0  0  0  0  0  0
   -2.2490  -13.6205   20.4993 N   0  0  0  0  0  0  0  0  0  0  0  0
   -1.4866  -12.6214   21.0487 C   0  0  0  0  0  0  0  0  0  0  0  0
   -1.6664  -11.2600   20.4783 C   0  0  0  0  0  0  0  0  0  0  0  0
   -1.0002  -10.1035   20.7815 C   0  0  0  0  0  0  0  0  0  0  0  0
   -0.0499  -10.2275   21.7501 C   0  0  0  0  0  0  0  0  0  0  0  0
    0.2762  -11.5367   22.5989 C   0  0  0  0  0  0  0  0  0  0  0  0
   -0.3095  -13.2846   22.4394 C   0  0  0  0  0  0  0  0  0  0  0  0
   -2.8296  -17.4774   25.0323 C   0  0  0  0  0  0  0  0  0  0  0  0
   -3.9523  -19.2665   24.7497 C   0  0  0  0  0  0  0  0  0  0  0  0
  -10.6533  -21.5263   24.4857 N   0  0  0  0  0  0  0  0  0  0  0  0
  -11.0722  -22.8303   24.4708 C   0  0  0  0  0  0  0  0  0  0  0  0
  -12.4191  -22.7717   24.2042 C   0  0  0  0  0  0  0  0  0  0  0  0
  -12.8298  -21.4734   24.0597 N   0  0  0  0  0  0  0  0  0  0  0  0
  -11.7464  -20.7472   24.2241 C   0  0  0  0  0  0  0  0  0  0  0  0
   -7.8778  -21.1059   26.4216 H   0  0  0  0  0  0  0  0  0  0  0  0
   -8.4159  -22.6864   25.8637 H   0  0  0  0  0  0  0  0  0  0  0  0
   -9.4940  -21.6857   26.8453 H   0  0  0  0  0  0  0  0  0  0  0  0
   -9.4119  -19.9488   24.9259 H   0  0  0  0  0  0  0  0  0  0  0  0
   -7.1777  -20.0327   24.6792 H   0  0  0  0  0  0  0  0  0  0  0  0
   -5.2934  -21.4067   23.3363 H   0  0  0  0  0  0  0  0  0  0  0  0
   -6.1198  -20.6060   21.9990 H   0  0  0  0  0  0  0  0  0  0  0  0
   -5.6910  -18.0763   21.2057 H   0  0  0  0  0  0  0  0  0  0  0  0
   -3.9807  -16.1714   21.1603 H   0  0  0  0  0  0  0  0  0  0  0  0
   -1.9235  -15.6982   20.5638 H   0  0  0  0  0  0  0  0  0  0  0  0
   -2.4233  -11.2155   19.6913 H   0  0  0  0  0  0  0  0  0  0  0  0
   -1.1787   -9.1785   20.2484 H   0  0  0  0  0  0  0  0  0  0  0  0
    0.5521   -9.3223   21.8365 H   0  0  0  0  0  0  0  0  0  0  0  0
    1.3067  -11.6271   22.9796 H   0  0  0  0  0  0  0  0  0  0  0  0
   -2.1695  -17.5884   25.9006 H   0  0  0  0  0  0  0  0  0  0  0  0
   -3.7592  -20.1614   25.3671 H   0  0  0  0  0  0  0  0  0  0  0  0
  -10.4027  -23.6629   24.6262 H   0  0  0  0  0  0  0  0  0  0  0  0
  -13.1125  -23.5961   24.1050 H   0  0  0  0  0  0  0  0  0  0  0  0
  -11.7058  -19.6672   24.1702 H   0  0  0  0  0  0  0  0  0  0  0  0
  1  2  1  0
  2  3  1  0
  3  4  2  0
  3  5  1  0
  5  6  1  0
  6  7  1  0
  7  8  2  0
  8  9  1  0
  9 10  2  0
 10 11  1  0
 11 12  1  0
 12 13  2  0
 13 14  1  0
 14 15  2  0
 15 16  1  0
 16 17  2  0
 17 18  1  0
 18 19  2  0
 10 20  1  0
 20 21  2  0
  2 22  1  0
 22 23  1  0
 23 24  2  0
 24 25  1  0
 25 26  2  0
 21  7  1  0
 26 22  1  0
 19 11  1  0
 19 14  1  0
  1 27  1  0
  1 28  1  0
  1 29  1  0
  2 30  1  0
  5 31  1  0
  6 32  1  0
  6 33  1  0
  8 34  1  0
  9 35  1  0
 12 36  1  0
 15 37  1  0
 16 38  1  0
 17 39  1  0
 18 40  1  0
 20 41  1  0
 21 42  1  0
 23 43  1  0
 24 44  1  0
 26 45  1  0
M  END
>  <Energy>  (1467) 
1228.7788079414747

>  <compound_id>  (1467) 
13080

>  <target_id>  (1467) 
1

>  <reference_id>  (1467) 
55

>  <inspiration_ids>  (1467) 
[55, 35]

>  <energy_score>  (1467) 
1142.6615229920994

>  <distance_score>  (1467) 
16.301524229362304

>  <path>  (1467) 
/opt/xchem-fragalysis-2/maxwin/BulkDock/SCRATCH/511017/C13080-P55/C13080-P55.minimised.mol

>  <scratch_subdir>  (1467) 
/opt/xchem-fragalysis-2/maxwin/BulkDock/SCRATCH/511017/C13080-P55

>  <fragmenstein_runtime>  (1467) 
48.035327196121216

>  <fragmenstein_outcome>  (1467) 
too moved

>  <fragmenstein_mode>  (1467) 
expansion

>  <fragmenstein_error>  (1467) 


$$$$
C13080-P35
     RDKit          3D

 45 48  0  0  0  0  0  0  0  0999 V2000
   -6.3039  -14.0929   30.2150 C   0  0  0  0  0  0  0  0  0  0  0  0
   -6.2861  -15.3503   29.4235 C   0  0  0  0  0  0  0  0  0  0  0  0
   -7.6351  -15.3587   27.9847 C   0  0  0  0  0  0  0  0  0  0  0  0
   -8.1557  -16.4279   27.7402 O   0  0  0  0  0  0  0  0  0  0  0  0
   -7.7758  -13.9902   27.2706 N   0  0  0  0  0  0  0  0  0  0  0  0
   -8.5119  -13.6082   26.0135 C   0  0  0  0  0  0  0  0  0  0  0  0
   -7.8637  -12.5595   25.0185 C   0  0  0  0  0  0  0  0  0  0  0  0
   -7.5632  -12.8827   23.6867 C   0  0  0  0  0  0  0  0  0  0  0  0
   -6.9570  -11.9346   22.7377 C   0  0  0  0  0  0  0  0  0  0  0  0
   -6.5118  -10.6059   23.0563 C   0  0  0  0  0  0  0  0  0  0  0  0
   -5.5230   -9.8058   22.1247 N   0  0  0  0  0  0  0  0  0  0  0  0
   -5.3772  -10.1182   20.7630 C   0  0  0  0  0  0  0  0  0  0  0  0
   -4.3176   -9.6180   20.1654 N   0  0  0  0  0  0  0  0  0  0  0  0
   -3.7037   -8.8602   21.1081 C   0  0  0  0  0  0  0  0  0  0  0  0
   -2.4879   -8.1450   20.9534 C   0  0  0  0  0  0  0  0  0  0  0  0
   -2.0116   -7.3599   21.9946 C   0  0  0  0  0  0  0  0  0  0  0  0
   -2.7716   -7.2640   23.1548 C   0  0  0  0  0  0  0  0  0  0  0  0
   -3.9915   -7.9762   23.3272 C   0  0  0  0  0  0  0  0  0  0  0  0
   -4.4554   -8.8382   22.3110 C   0  0  0  0  0  0  0  0  0  0  0  0
   -6.9593  -10.2441   24.3220 C   0  0  0  0  0  0  0  0  0  0  0  0
   -7.6373  -11.1853   25.2479 C   0  0  0  0  0  0  0  0  0  0  0  0
   -5.4743  -16.5938   29.9085 N   0  0  0  0  0  0  0  0  0  0  0  0
   -5.5720  -17.3108   31.1287 C   0  0  0  0  0  0  0  0  0  0  0  0
   -4.6289  -18.2866   31.1399 C   0  0  0  0  0  0  0  0  0  0  0  0
   -3.8446  -18.1348   30.0801 N   0  0  0  0  0  0  0  0  0  0  0  0
   -4.3588  -17.1633   29.3574 C   0  0  0  0  0  0  0  0  0  0  0  0
   -6.9113  -13.6194   29.4964 H   0  0  0  0  0  0  0  0  0  0  0  0
   -5.4425  -13.4264   30.2209 H   0  0  0  0  0  0  0  0  0  0  0  0
   -6.9110  -14.1055   31.1074 H   0  0  0  0  0  0  0  0  0  0  0  0
   -6.0575  -14.8809   28.5769 H   0  0  0  0  0  0  0  0  0  0  0  0
   -7.1421  -13.3345   27.6830 H   0  0  0  0  0  0  0  0  0  0  0  0
   -8.6574  -14.5466   25.4655 H   0  0  0  0  0  0  0  0  0  0  0  0
   -9.5119  -13.2667   26.2873 H   0  0  0  0  0  0  0  0  0  0  0  0
   -7.7656  -13.8892   23.3206 H   0  0  0  0  0  0  0  0  0  0  0  0
   -6.7330  -12.3436   21.7530 H   0  0  0  0  0  0  0  0  0  0  0  0
   -6.0905  -10.7686   20.2785 H   0  0  0  0  0  0  0  0  0  0  0  0
   -1.9496   -8.2162   20.0137 H   0  0  0  0  0  0  0  0  0  0  0  0
   -1.0834   -6.8071   21.8873 H   0  0  0  0  0  0  0  0  0  0  0  0
   -2.4347   -6.6079   23.9564 H   0  0  0  0  0  0  0  0  0  0  0  0
   -4.5732   -7.8099   24.2258 H   0  0  0  0  0  0  0  0  0  0  0  0
   -6.8142   -9.2235   24.6737 H   0  0  0  0  0  0  0  0  0  0  0  0
   -7.9754  -10.7171   26.1604 H   0  0  0  0  0  0  0  0  0  0  0  0
   -6.2688  -17.1394   31.9284 H   0  0  0  0  0  0  0  0  0  0  0  0
   -4.4990  -19.0998   31.8332 H   0  0  0  0  0  0  0  0  0  0  0  0
   -3.9365  -16.8766   28.4114 H   0  0  0  0  0  0  0  0  0  0  0  0
  1  2  1  0
  2  3  1  0
  3  4  2  0
  3  5  1  0
  5  6  1  0
  6  7  1  0
  7  8  2  0
  8  9  1  0
  9 10  2  0
 10 11  1  0
 11 12  1  0
 12 13  2  0
 13 14  1  0
 14 15  2  0
 15 16  1  0
 16 17  2  0
 17 18  1  0
 18 19  2  0
 10 20  1  0
 20 21  2  0
  2 22  1  0
 22 23  1  0
 23 24  2  0
 24 25  1  0
 25 26  2  0
 21  7  1  0
 26 22  1  0
 19 11  1  0
 19 14  1  0
  1 27  1  0
  1 28  1  0
  1 29  1  0
  2 30  1  0
  5 31  1  0
  6 32  1  0
  6 33  1  0
  8 34  1  0
  9 35  1  0
 12 36  1  0
 15 37  1  0
 16 38  1  0
 17 39  1  0
 18 40  1  0
 20 41  1  0
 21 42  1  0
 23 43  1  0
 24 44  1  0
 26 45  1  0
M  END
>  <Energy>  (1468) 
243.40958285198033

>  <compound_id>  (1468) 
13080

>  <target_id>  (1468) 
1

>  <reference_id>  (1468) 
35

>  <inspiration_ids>  (1468) 
[55, 35]

>  <energy_score>  (1468) 
157.29229790259092

>  <distance_score>  (1468) 
16.90794593990435

>  <path>  (1468) 
/opt/xchem-fragalysis-2/maxwin/BulkDock/SCRATCH/511017/C13080-P35/C13080-P35.minimised.mol

>  <scratch_subdir>  (1468) 
/opt/xchem-fragalysis-2/maxwin/BulkDock/SCRATCH/511017/C13080-P35

>  <fragmenstein_runtime>  (1468) 
29.52895998954773

>  <fragmenstein_outcome>  (1468) 
too moved

>  <fragmenstein_mode>  (1468) 
expansion

>  <fragmenstein_error>  (1468) 


$$$$
C31646-P55
     RDKit          3D

 46 49  0  0  0  0  0  0  0  0999 V2000
    7.0768   -7.3813   25.8390 C   0  0  0  0  0  0  0  0  0  0  0  0
    5.8845   -7.4366   26.5567 C   0  0  0  0  0  0  0  0  0  0  0  0
    5.5450   -8.5438   27.3729 C   0  0  0  0  0  0  0  0  0  0  0  0
    6.4343   -9.6329   27.4468 C   0  0  0  0  0  0  0  0  0  0  0  0
    7.6532   -9.5527   26.7371 C   0  0  0  0  0  0  0  0  0  0  0  0
    7.9783   -8.4357   25.9358 C   0  0  0  0  0  0  0  0  0  0  0  0
    8.4066  -10.6657   26.9334 N   0  0  0  0  0  0  0  0  0  0  0  0
    7.6679  -11.4483   27.6860 C   0  0  0  0  0  0  0  0  0  0  0  0
    6.4037  -10.9504   27.9949 N   0  0  0  0  0  0  0  0  0  0  0  0
    5.2733  -11.8326   28.5269 C   0  0  0  0  0  0  0  0  0  0  0  0
    5.2865  -13.3175   27.8513 C   0  0  0  0  0  0  0  0  0  0  0  0
    4.1022  -14.2172   27.3746 C   0  0  0  0  0  0  0  0  0  0  0  0
    2.7528  -13.6379   27.5800 C   0  0  0  0  0  0  0  0  0  0  0  0
    0.9115  -14.1467   26.9528 C   0  0  0  0  0  0  0  0  0  0  0  0
   -0.8416  -14.7943   27.8021 N   0  0  0  0  0  0  0  0  0  0  0  0
   -2.3179  -14.7927   28.9652 C   0  0  0  0  0  0  0  0  0  0  0  0
   -3.6219  -15.8010   30.0272 C   0  0  0  0  0  0  0  0  0  0  0  0
   -5.5728  -16.1016   30.7273 C   0  0  0  0  0  0  0  0  0  0  0  0
   -6.1934  -16.7560   32.4152 N   0  0  0  0  0  0  0  0  0  0  0  0
   -6.3938  -18.0223   32.8521 C   0  0  0  0  0  0  0  0  0  0  0  0
   -7.1985  -18.0373   33.9776 C   0  0  0  0  0  0  0  0  0  0  0  0
   -7.5333  -16.8120   34.3420 N   0  0  0  0  0  0  0  0  0  0  0  0
   -7.1211  -16.1135   33.3209 C   0  0  0  0  0  0  0  0  0  0  0  0
    2.6036  -12.0037   28.5336 C   0  0  0  0  0  0  0  0  0  0  0  0
    3.9661  -11.2365   29.0744 C   0  0  0  0  0  0  0  0  0  0  0  0
    7.3124   -6.5172   25.2246 H   0  0  0  0  0  0  0  0  0  0  0  0
    5.1892   -6.6008   26.4915 H   0  0  0  0  0  0  0  0  0  0  0  0
    4.5987   -8.5534   27.9021 H   0  0  0  0  0  0  0  0  0  0  0  0
    8.9236   -8.4185   25.4033 H   0  0  0  0  0  0  0  0  0  0  0  0
    7.9870  -12.4177   28.0446 H   0  0  0  0  0  0  0  0  0  0  0  0
    6.2573  -13.6863   27.5028 H   0  0  0  0  0  0  0  0  0  0  0  0
    4.3252  -15.1332   26.8448 H   0  0  0  0  0  0  0  0  0  0  0  0
    1.0865  -14.0226   25.8857 H   0  0  0  0  0  0  0  0  0  0  0  0
    0.5966  -13.1562   26.6848 H   0  0  0  0  0  0  0  0  0  0  0  0
   -0.7577  -14.0168   28.3792 H   0  0  0  0  0  0  0  0  0  0  0  0
   -2.5489  -15.5170   28.1675 H   0  0  0  0  0  0  0  0  0  0  0  0
   -1.6170  -14.8277   29.8044 H   0  0  0  0  0  0  0  0  0  0  0  0
   -2.9563  -16.1142   30.8477 H   0  0  0  0  0  0  0  0  0  0  0  0
   -3.7919  -16.4059   29.1752 H   0  0  0  0  0  0  0  0  0  0  0  0
   -5.0882  -16.4428   31.8530 H   0  0  0  0  0  0  0  0  0  0  0  0
   -5.7921  -16.9602   30.1084 H   0  0  0  0  0  0  0  0  0  0  0  0
   -5.8818  -18.8938   32.4843 H   0  0  0  0  0  0  0  0  0  0  0  0
   -7.4628  -18.9042   34.5504 H   0  0  0  0  0  0  0  0  0  0  0  0
   -7.6451  -15.2116   33.0560 H   0  0  0  0  0  0  0  0  0  0  0  0
    1.6742  -11.4234   28.5845 H   0  0  0  0  0  0  0  0  0  0  0  0
    3.8851  -10.2269   29.4603 H   0  0  0  0  0  0  0  0  0  0  0  0
  1  2  2  0
  2  3  1  0
  3  4  2  0
  4  5  1  0
  5  6  2  0
  5  7  1  0
  7  8  2  0
  8  9  1  0
  9 10  1  0
 10 11  2  0
 11 12  1  0
 12 13  2  0
 13 14  1  0
 14 15  1  0
 15 16  1  0
 16 17  1  0
 17 18  1  0
 18 19  1  0
 19 20  1  0
 20 21  2  0
 21 22  1  0
 22 23  2  0
 13 24  1  0
 24 25  2  0
  6  1  1  0
 25 10  1  0
  9  4  1  0
 23 19  1  0
  1 26  1  0
  2 27  1  0
  3 28  1  0
  6 29  1  0
  8 30  1  0
 11 31  1  0
 12 32  1  0
 14 33  1  0
 14 34  1  0
 15 35  1  0
 16 36  1  0
 16 37  1  0
 17 38  1  0
 17 39  1  0
 18 40  1  0
 18 41  1  0
 20 42  1  0
 21 43  1  0
 23 44  1  0
 24 45  1  0
 25 46  1  0
M  END
>  <Energy>  (1469) 
913.73777310661399

>  <compound_id>  (1469) 
31646

>  <target_id>  (1469) 
1

>  <reference_id>  (1469) 
55

>  <inspiration_ids>  (1469) 
[55, 35]

>  <energy_score>  (1469) 
825.9335817239069

>  <distance_score>  (1469) 
16.11537211061008

>  <path>  (1469) 
/opt/xchem-fragalysis-2/maxwin/BulkDock/SCRATCH/511017/C31646-P55/C31646-P55.minimised.mol

>  <scratch_subdir>  (1469) 
/opt/xchem-fragalysis-2/maxwin/BulkDock/SCRATCH/511017/C31646-P55

>  <fragmenstein_runtime>  (1469) 
28.311965465545654

>  <fragmenstein_outcome>  (1469) 
too moved

>  <fragmenstein_mode>  (1469) 
expansion

>  <fragmenstein_error>  (1469) 


$$$$
C31646-P35
     RDKit          3D

 46 49  0  0  0  0  0  0  0  0999 V2000
   -6.0613   -9.4209   22.0787 C   0  0  0  0  0  0  0  0  0  0  0  0
   -6.5516   -9.4894   23.3791 C   0  0  0  0  0  0  0  0  0  0  0  0
   -7.1672  -10.6603   23.9114 C   0  0  0  0  0  0  0  0  0  0  0  0
   -7.2766  -11.8134   23.1080 C   0  0  0  0  0  0  0  0  0  0  0  0
   -6.7635  -11.7328   21.7885 C   0  0  0  0  0  0  0  0  0  0  0  0
   -6.1926  -10.5378   21.2621 C   0  0  0  0  0  0  0  0  0  0  0  0
   -6.8099  -12.9536   21.1796 N   0  0  0  0  0  0  0  0  0  0  0  0
   -7.3956  -13.7444   22.0512 C   0  0  0  0  0  0  0  0  0  0  0  0
   -7.7831  -13.1533   23.2564 N   0  0  0  0  0  0  0  0  0  0  0  0
   -8.6285  -13.9197   24.3005 C   0  0  0  0  0  0  0  0  0  0  0  0
   -9.2089  -13.3584   25.4428 C   0  0  0  0  0  0  0  0  0  0  0  0
  -10.1463  -14.0965   26.3080 C   0  0  0  0  0  0  0  0  0  0  0  0
  -10.5552  -15.4495   26.1243 C   0  0  0  0  0  0  0  0  0  0  0  0
  -11.7919  -16.0483   26.9340 C   0  0  0  0  0  0  0  0  0  0  0  0
  -11.9547  -17.5368   27.2131 N   0  0  0  0  0  0  0  0  0  0  0  0
  -12.1792  -18.2802   28.7756 C   0  0  0  0  0  0  0  0  0  0  0  0
  -12.2975  -20.3402   29.1561 C   0  0  0  0  0  0  0  0  0  0  0  0
  -12.5922  -21.5886   30.3512 C   0  0  0  0  0  0  0  0  0  0  0  0
  -12.2346  -21.5513   31.7587 N   0  0  0  0  0  0  0  0  0  0  0  0
  -13.0925  -21.8668   32.7837 C   0  0  0  0  0  0  0  0  0  0  0  0
  -12.3576  -21.7077   33.9341 C   0  0  0  0  0  0  0  0  0  0  0  0
  -11.0729  -21.3593   33.6404 N   0  0  0  0  0  0  0  0  0  0  0  0
  -11.0316  -21.2929   32.3319 C   0  0  0  0  0  0  0  0  0  0  0  0
   -9.9141  -16.0448   25.0346 C   0  0  0  0  0  0  0  0  0  0  0  0
   -8.9862  -15.3054   24.1582 C   0  0  0  0  0  0  0  0  0  0  0  0
   -5.5965   -8.5156   21.7041 H   0  0  0  0  0  0  0  0  0  0  0  0
   -6.4795   -8.6100   24.0174 H   0  0  0  0  0  0  0  0  0  0  0  0
   -7.5280  -10.6573   24.9355 H   0  0  0  0  0  0  0  0  0  0  0  0
   -5.7983  -10.5447   20.2524 H   0  0  0  0  0  0  0  0  0  0  0  0
   -7.6077  -14.7823   21.8450 H   0  0  0  0  0  0  0  0  0  0  0  0
   -9.0268  -12.3153   25.6933 H   0  0  0  0  0  0  0  0  0  0  0  0
  -10.5934  -13.5278   27.1272 H   0  0  0  0  0  0  0  0  0  0  0  0
  -12.0623  -15.4142   27.7827 H   0  0  0  0  0  0  0  0  0  0  0  0
  -12.6118  -15.8283   26.2307 H   0  0  0  0  0  0  0  0  0  0  0  0
  -12.9480  -17.6323   26.9019 H   0  0  0  0  0  0  0  0  0  0  0  0
  -12.5905  -17.4742   29.3072 H   0  0  0  0  0  0  0  0  0  0  0  0
  -11.2511  -17.9989   29.1804 H   0  0  0  0  0  0  0  0  0  0  0  0
  -12.1628  -20.9176   28.2626 H   0  0  0  0  0  0  0  0  0  0  0  0
  -11.2460  -20.6766   29.4452 H   0  0  0  0  0  0  0  0  0  0  0  0
  -12.0305  -22.4585   29.9677 H   0  0  0  0  0  0  0  0  0  0  0  0
  -13.6160  -21.9591   30.3592 H   0  0  0  0  0  0  0  0  0  0  0  0
  -14.1218  -22.1646   32.6296 H   0  0  0  0  0  0  0  0  0  0  0  0
  -12.6852  -21.8457   34.9547 H   0  0  0  0  0  0  0  0  0  0  0  0
  -10.1606  -21.0324   31.7715 H   0  0  0  0  0  0  0  0  0  0  0  0
  -10.1508  -17.0769   24.7757 H   0  0  0  0  0  0  0  0  0  0  0  0
   -8.5961  -15.8891   23.3264 H   0  0  0  0  0  0  0  0  0  0  0  0
  1  2  2  0
  2  3  1  0
  3  4  2  0
  4  5  1  0
  5  6  2  0
  5  7  1  0
  7  8  2  0
  8  9  1  0
  9 10  1  0
 10 11  2  0
 11 12  1  0
 12 13  2  0
 13 14  1  0
 14 15  1  0
 15 16  1  0
 16 17  1  0
 17 18  1  0
 18 19  1  0
 19 20  1  0
 20 21  2  0
 21 22  1  0
 22 23  2  0
 13 24  1  0
 24 25  2  0
  6  1  1  0
 25 10  1  0
  9  4  1  0
 23 19  1  0
  1 26  1  0
  2 27  1  0
  3 28  1  0
  6 29  1  0
  8 30  1  0
 11 31  1  0
 12 32  1  0
 14 33  1  0
 14 34  1  0
 15 35  1  0
 16 36  1  0
 16 37  1  0
 17 38  1  0
 17 39  1  0
 18 40  1  0
 18 41  1  0
 20 42  1  0
 21 43  1  0
 23 44  1  0
 24 45  1  0
 25 46  1  0
M  END
>  <Energy>  (1470) 
298.01220421586021

>  <compound_id>  (1470) 
31646

>  <target_id>  (1470) 
1

>  <reference_id>  (1470) 
35

>  <inspiration_ids>  (1470) 
[55, 35]

>  <energy_score>  (1470) 
210.20801283316678

>  <distance_score>  (1470) 
18.3238329094171

>  <path>  (1470) 
/opt/xchem-fragalysis-2/maxwin/BulkDock/SCRATCH/511017/C31646-P35/C31646-P35.minimised.mol

>  <scratch_subdir>  (1470) 
/opt/xchem-fragalysis-2/maxwin/BulkDock/SCRATCH/511017/C31646-P35

>  <fragmenstein_runtime>  (1470) 
25.051894664764404

>  <fragmenstein_outcome>  (1470) 
too moved

>  <fragmenstein_mode>  (1470) 
expansion

>  <fragmenstein_error>  (1470) 


$$$$
C17125-P55
     RDKit          3D

 46 48  0  0  0  0  0  0  0  0999 V2000
    2.3436   -2.7777   16.3623 C   0  0  0  0  0  0  0  0  0  0  0  0
    3.7802   -2.4950   16.6784 N   0  0  0  0  0  0  0  0  0  0  0  0
    3.9710   -4.0098   16.1372 C   0  0  0  0  0  0  0  0  0  0  0  0
    4.6831   -5.6839   16.8662 C   0  0  0  0  0  0  0  0  0  0  0  0
    4.2344   -7.0747   17.9381 C   0  0  0  0  0  0  0  0  0  0  0  0
    2.7497   -8.1695   17.6911 N   0  0  0  0  0  0  0  0  0  0  0  0
    1.5917   -8.4550   18.4013 C   0  0  0  0  0  0  0  0  0  0  0  0
    0.5897   -8.8801   17.5224 C   0  0  0  0  0  0  0  0  0  0  0  0
    1.0699   -9.1383   16.3165 N   0  0  0  0  0  0  0  0  0  0  0  0
    2.2029   -8.4921   16.3710 C   0  0  0  0  0  0  0  0  0  0  0  0
    4.1787   -1.2141   16.0778 C   0  0  0  0  0  0  0  0  0  0  0  0
    4.6437   -0.9882   15.0319 O   0  0  0  0  0  0  0  0  0  0  0  0
    3.9160   -0.3307   17.1976 N   0  0  0  0  0  0  0  0  0  0  0  0
    4.0600    1.1004   17.3230 C   0  0  0  0  0  0  0  0  0  0  0  0
    4.3239    1.6537   18.7027 C   0  0  0  0  0  0  0  0  0  0  0  0
    5.5684    1.2396   19.3996 C   0  0  0  0  0  0  0  0  0  0  0  0
    6.2806    2.0359   20.1658 N   0  0  0  0  0  0  0  0  0  0  0  0
    6.7864    1.2256   21.1461 C   0  0  0  0  0  0  0  0  0  0  0  0
    7.4537    1.5546   22.3319 C   0  0  0  0  0  0  0  0  0  0  0  0
    7.7310    0.5378   23.2515 C   0  0  0  0  0  0  0  0  0  0  0  0
    7.3144   -0.7695   23.0136 C   0  0  0  0  0  0  0  0  0  0  0  0
    6.6970   -1.1186   21.8111 C   0  0  0  0  0  0  0  0  0  0  0  0
    6.4939   -0.1012   20.8783 C   0  0  0  0  0  0  0  0  0  0  0  0
    5.9171   -0.0687   19.6282 N   0  0  0  0  0  0  0  0  0  0  0  0
    1.7943   -3.2543   17.1702 H   0  0  0  0  0  0  0  0  0  0  0  0
    2.0716   -3.0389   15.3299 H   0  0  0  0  0  0  0  0  0  0  0  0
    1.8618   -1.7848   16.4093 H   0  0  0  0  0  0  0  0  0  0  0  0
    4.8283   -3.6510   15.5614 H   0  0  0  0  0  0  0  0  0  0  0  0
    3.3577   -4.3088   15.2553 H   0  0  0  0  0  0  0  0  0  0  0  0
    5.7672   -5.7584   16.8880 H   0  0  0  0  0  0  0  0  0  0  0  0
    4.3448   -6.2750   16.0156 H   0  0  0  0  0  0  0  0  0  0  0  0
    5.0663   -7.7470   18.1519 H   0  0  0  0  0  0  0  0  0  0  0  0
    4.2476   -6.5670   18.8781 H   0  0  0  0  0  0  0  0  0  0  0  0
    1.3130   -8.0987   19.3635 H   0  0  0  0  0  0  0  0  0  0  0  0
   -0.4658   -8.9921   17.7465 H   0  0  0  0  0  0  0  0  0  0  0  0
    2.6335   -8.0643   15.4754 H   0  0  0  0  0  0  0  0  0  0  0  0
    3.4273   -0.8467   17.9188 H   0  0  0  0  0  0  0  0  0  0  0  0
    4.8558    1.4083   16.6395 H   0  0  0  0  0  0  0  0  0  0  0  0
    3.1309    1.5303   16.9316 H   0  0  0  0  0  0  0  0  0  0  0  0
    3.4791    1.3907   19.3535 H   0  0  0  0  0  0  0  0  0  0  0  0
    4.3211    2.7493   18.6349 H   0  0  0  0  0  0  0  0  0  0  0  0
    7.7013    2.5876   22.5486 H   0  0  0  0  0  0  0  0  0  0  0  0
    8.2174    0.7868   24.1922 H   0  0  0  0  0  0  0  0  0  0  0  0
    7.4574   -1.5259   23.7843 H   0  0  0  0  0  0  0  0  0  0  0  0
    6.3494   -2.1307   21.6435 H   0  0  0  0  0  0  0  0  0  0  0  0
    5.5127   -0.8649   19.1549 H   0  0  0  0  0  0  0  0  0  0  0  0
  1  2  1  0
  2  3  1  0
  3  4  1  0
  4  5  1  0
  5  6  1  0
  6  7  1  0
  7  8  2  0
  8  9  1  0
  9 10  2  0
  2 11  1  0
 11 12  2  0
 11 13  1  0
 13 14  1  0
 14 15  1  0
 15 16  1  0
 16 17  2  0
 17 18  1  0
 18 19  2  0
 19 20  1  0
 20 21  2  0
 21 22  1  0
 22 23  2  0
 23 24  1  0
 10  6  1  0
 24 16  1  0
 23 18  1  0
  1 25  1  0
  1 26  1  0
  1 27  1  0
  3 28  1  0
  3 29  1  0
  4 30  1  0
  4 31  1  0
  5 32  1  0
  5 33  1  0
  7 34  1  0
  8 35  1  0
 10 36  1  0
 13 37  1  0
 14 38  1  0
 14 39  1  0
 15 40  1  0
 15 41  1  0
 19 42  1  0
 20 43  1  0
 21 44  1  0
 22 45  1  0
 24 46  1  0
M  END
>  <Energy>  (1471) 
232.99194476608491

>  <compound_id>  (1471) 
17125

>  <target_id>  (1471) 
1

>  <reference_id>  (1471) 
55

>  <inspiration_ids>  (1471) 
[55, 35]

>  <energy_score>  (1471) 
263.09329634850644

>  <distance_score>  (1471) 
16.912359285464724

>  <path>  (1471) 
/opt/xchem-fragalysis-2/maxwin/BulkDock/SCRATCH/511017/C17125-P55/C17125-P55.minimised.mol

>  <scratch_subdir>  (1471) 
/opt/xchem-fragalysis-2/maxwin/BulkDock/SCRATCH/511017/C17125-P55

>  <fragmenstein_runtime>  (1471) 
23.1453218460083

>  <fragmenstein_outcome>  (1471) 
too moved

>  <fragmenstein_mode>  (1471) 
expansion

>  <fragmenstein_error>  (1471) 


$$$$
C17125-P35
     RDKit          3D

 46 48  0  0  0  0  0  0  0  0999 V2000
   -3.6833  -10.6805   18.9786 C   0  0  0  0  0  0  0  0  0  0  0  0
   -2.6224  -11.4619   18.2956 N   0  0  0  0  0  0  0  0  0  0  0  0
   -3.5429  -12.7062   18.7844 C   0  0  0  0  0  0  0  0  0  0  0  0
   -3.6390  -13.3208   20.2876 C   0  0  0  0  0  0  0  0  0  0  0  0
   -4.4428  -14.7180   20.3853 C   0  0  0  0  0  0  0  0  0  0  0  0
   -4.5742  -15.4485   21.6561 N   0  0  0  0  0  0  0  0  0  0  0  0
   -3.8765  -16.5804   22.0220 C   0  0  0  0  0  0  0  0  0  0  0  0
   -4.5067  -17.0778   23.1436 C   0  0  0  0  0  0  0  0  0  0  0  0
   -5.5800  -16.2959   23.4730 N   0  0  0  0  0  0  0  0  0  0  0  0
   -5.6099  -15.3470   22.5581 C   0  0  0  0  0  0  0  0  0  0  0  0
   -2.3746  -10.8891   16.8638 C   0  0  0  0  0  0  0  0  0  0  0  0
   -2.8839  -11.1961   15.8463 O   0  0  0  0  0  0  0  0  0  0  0  0
   -1.2512   -9.9261   17.1342 N   0  0  0  0  0  0  0  0  0  0  0  0
   -0.3685   -9.1397   16.1807 C   0  0  0  0  0  0  0  0  0  0  0  0
   -0.6774   -7.6815   15.7265 C   0  0  0  0  0  0  0  0  0  0  0  0
    0.4479   -6.9599   14.9536 C   0  0  0  0  0  0  0  0  0  0  0  0
    1.2682   -7.4539   14.0405 N   0  0  0  0  0  0  0  0  0  0  0  0
    1.8550   -6.3666   13.4142 C   0  0  0  0  0  0  0  0  0  0  0  0
    2.6267   -6.2998   12.2419 C   0  0  0  0  0  0  0  0  0  0  0  0
    3.0083   -5.0405   11.7507 C   0  0  0  0  0  0  0  0  0  0  0  0
    2.6886   -3.8735   12.4515 C   0  0  0  0  0  0  0  0  0  0  0  0
    1.9585   -3.9234   13.6455 C   0  0  0  0  0  0  0  0  0  0  0  0
    1.5178   -5.1860   14.0574 C   0  0  0  0  0  0  0  0  0  0  0  0
    0.6319   -5.5877   15.0276 N   0  0  0  0  0  0  0  0  0  0  0  0
   -3.3964   -9.6264   18.8485 H   0  0  0  0  0  0  0  0  0  0  0  0
   -3.6923  -10.8002   20.0660 H   0  0  0  0  0  0  0  0  0  0  0  0
   -4.6713  -10.7243   18.4991 H   0  0  0  0  0  0  0  0  0  0  0  0
   -3.0448  -13.5126   18.2233 H   0  0  0  0  0  0  0  0  0  0  0  0
   -4.5318  -12.6874   18.2968 H   0  0  0  0  0  0  0  0  0  0  0  0
   -2.6291  -13.4665   20.6793 H   0  0  0  0  0  0  0  0  0  0  0  0
   -4.1422  -12.6134   20.9542 H   0  0  0  0  0  0  0  0  0  0  0  0
   -3.9787  -15.4190   19.6802 H   0  0  0  0  0  0  0  0  0  0  0  0
   -5.4662  -14.5426   20.0307 H   0  0  0  0  0  0  0  0  0  0  0  0
   -3.0241  -16.9361   21.4600 H   0  0  0  0  0  0  0  0  0  0  0  0
   -4.2467  -17.9564   23.7198 H   0  0  0  0  0  0  0  0  0  0  0  0
   -6.3618  -14.5717   22.4883 H   0  0  0  0  0  0  0  0  0  0  0  0
   -1.0051   -9.9650   18.1260 H   0  0  0  0  0  0  0  0  0  0  0  0
   -0.2787   -9.7648   15.2843 H   0  0  0  0  0  0  0  0  0  0  0  0
    0.6148   -9.1166   16.6634 H   0  0  0  0  0  0  0  0  0  0  0  0
   -1.0086   -7.0839   16.5809 H   0  0  0  0  0  0  0  0  0  0  0  0
   -1.5463   -7.7222   15.0562 H   0  0  0  0  0  0  0  0  0  0  0  0
    2.8780   -7.2093   11.7080 H   0  0  0  0  0  0  0  0  0  0  0  0
    3.5741   -4.9775   10.8249 H   0  0  0  0  0  0  0  0  0  0  0  0
    3.0136   -2.9105   12.0628 H   0  0  0  0  0  0  0  0  0  0  0  0
    1.6798   -3.0175   14.1723 H   0  0  0  0  0  0  0  0  0  0  0  0
    0.0949   -4.9640   15.6092 H   0  0  0  0  0  0  0  0  0  0  0  0
  1  2  1  0
  2  3  1  0
  3  4  1  0
  4  5  1  0
  5  6  1  0
  6  7  1  0
  7  8  2  0
  8  9  1  0
  9 10  2  0
  2 11  1  0
 11 12  2  0
 11 13  1  0
 13 14  1  0
 14 15  1  0
 15 16  1  0
 16 17  2  0
 17 18  1  0
 18 19  2  0
 19 20  1  0
 20 21  2  0
 21 22  1  0
 22 23  2  0
 23 24  1  0
 10  6  1  0
 24 16  1  0
 23 18  1  0
  1 25  1  0
  1 26  1  0
  1 27  1  0
  3 28  1  0
  3 29  1  0
  4 30  1  0
  4 31  1  0
  5 32  1  0
  5 33  1  0
  7 34  1  0
  8 35  1  0
 10 36  1  0
 13 37  1  0
 14 38  1  0
 14 39  1  0
 15 40  1  0
 15 41  1  0
 19 42  1  0
 20 43  1  0
 21 44  1  0
 22 45  1  0
 24 46  1  0
M  END
>  <Energy>  (1472) 
47.82169610233143

>  <compound_id>  (1472) 
17125

>  <target_id>  (1472) 
1

>  <reference_id>  (1472) 
35

>  <inspiration_ids>  (1472) 
[55, 35]

>  <energy_score>  (1472) 
77.92304768475447

>  <distance_score>  (1472) 
16.450911359645083

>  <path>  (1472) 
/opt/xchem-fragalysis-2/maxwin/BulkDock/SCRATCH/511017/C17125-P35/C17125-P35.minimised.mol

>  <scratch_subdir>  (1472) 
/opt/xchem-fragalysis-2/maxwin/BulkDock/SCRATCH/511017/C17125-P35

>  <fragmenstein_runtime>  (1472) 
32.91853857040405

>  <fragmenstein_outcome>  (1472) 
too moved

>  <fragmenstein_mode>  (1472) 
expansion

>  <fragmenstein_error>  (1472) 


$$$$
C31662-P55
     RDKit          3D

 35 38  0  0  0  0  0  0  0  0999 V2000
   -2.3629  -14.4667   19.5320 O   0  0  0  0  0  0  0  0  0  0  0  0
   -2.0609  -15.1609   20.4914 C   0  0  0  0  0  0  0  0  0  0  0  0
   -1.0835  -14.6478   21.9660 N   0  0  0  0  0  0  0  0  0  0  0  0
   -0.3807  -12.8604   22.4746 C   0  0  0  0  0  0  0  0  0  0  0  0
   -1.5498  -12.0576   21.2171 C   0  0  0  0  0  0  0  0  0  0  0  0
   -1.9975  -10.7181   20.6538 C   0  0  0  0  0  0  0  0  0  0  0  0
   -1.2738   -9.5780   20.9859 C   0  0  0  0  0  0  0  0  0  0  0  0
   -1.3137   -8.2623   20.5468 N   0  0  0  0  0  0  0  0  0  0  0  0
   -0.1789   -7.7361   20.9529 C   0  0  0  0  0  0  0  0  0  0  0  0
    0.5568   -8.6522   21.6352 N   0  0  0  0  0  0  0  0  0  0  0  0
   -0.1687   -9.8310   21.7653 C   0  0  0  0  0  0  0  0  0  0  0  0
    0.1232  -11.1952   22.4216 C   0  0  0  0  0  0  0  0  0  0  0  0
   -2.6136  -16.6734   20.2656 C   0  0  0  0  0  0  0  0  0  0  0  0
   -4.0209  -16.8496   20.3230 C   0  0  0  0  0  0  0  0  0  0  0  0
   -4.5952  -18.0943   20.6237 C   0  0  0  0  0  0  0  0  0  0  0  0
   -3.7453  -19.1762   20.8021 C   0  0  0  0  0  0  0  0  0  0  0  0
   -4.2602  -20.4558   21.1423 N   0  0  0  0  0  0  0  0  0  0  0  0
   -5.5667  -20.8350   21.3597 C   0  0  0  0  0  0  0  0  0  0  0  0
   -5.5191  -22.1709   21.6859 C   0  0  0  0  0  0  0  0  0  0  0  0
   -4.2321  -22.6285   21.6797 N   0  0  0  0  0  0  0  0  0  0  0  0
   -3.5016  -21.5874   21.3432 C   0  0  0  0  0  0  0  0  0  0  0  0
   -2.3938  -19.0651   20.6495 N   0  0  0  0  0  0  0  0  0  0  0  0
   -1.8586  -17.8372   20.3500 C   0  0  0  0  0  0  0  0  0  0  0  0
   -1.0611  -15.3800   22.6192 H   0  0  0  0  0  0  0  0  0  0  0  0
   -2.1486  -12.7710   20.6471 H   0  0  0  0  0  0  0  0  0  0  0  0
   -2.7982  -10.6804   19.9239 H   0  0  0  0  0  0  0  0  0  0  0  0
    0.1562   -6.7257   20.7738 H   0  0  0  0  0  0  0  0  0  0  0  0
    1.4747   -8.5409   22.0346 H   0  0  0  0  0  0  0  0  0  0  0  0
    1.1487  -11.4336   22.7122 H   0  0  0  0  0  0  0  0  0  0  0  0
   -4.6730  -15.9906   20.1899 H   0  0  0  0  0  0  0  0  0  0  0  0
   -5.6732  -18.1677   20.7012 H   0  0  0  0  0  0  0  0  0  0  0  0
   -6.4053  -20.1622   21.2715 H   0  0  0  0  0  0  0  0  0  0  0  0
   -6.3474  -22.8260   21.9255 H   0  0  0  0  0  0  0  0  0  0  0  0
   -2.4243  -21.5854   21.2318 H   0  0  0  0  0  0  0  0  0  0  0  0
   -0.7727  -17.8029   20.3177 H   0  0  0  0  0  0  0  0  0  0  0  0
  1  2  2  0
  2  3  1  0
  3  4  1  0
  4  5  2  0
  5  6  1  0
  6  7  2  0
  7  8  1  0
  8  9  2  0
  9 10  1  0
 10 11  1  0
 11 12  2  0
  2 13  1  0
 13 14  2  0
 14 15  1  0
 15 16  2  0
 16 17  1  0
 17 18  1  0
 18 19  2  0
 19 20  1  0
 20 21  2  0
 16 22  1  0
 22 23  2  0
 12  4  1  0
 23 13  1  0
 11  7  1  0
 21 17  1  0
  3 24  1  0
  5 25  1  0
  6 26  1  0
  9 27  1  0
 10 28  1  0
 12 29  1  0
 14 30  1  0
 15 31  1  0
 18 32  1  0
 19 33  1  0
 21 34  1  0
 23 35  1  0
M  END
>  <Energy>  (1473) 
491.03154388015281

>  <compound_id>  (1473) 
31662

>  <target_id>  (1473) 
1

>  <reference_id>  (1473) 
55

>  <inspiration_ids>  (1473) 
[55, 35]

>  <energy_score>  (1473) 
407.6566491993925

>  <distance_score>  (1473) 
16.593803439997853

>  <path>  (1473) 
/opt/xchem-fragalysis-2/maxwin/BulkDock/SCRATCH/511017/C31662-P55/C31662-P55.minimised.mol

>  <scratch_subdir>  (1473) 
/opt/xchem-fragalysis-2/maxwin/BulkDock/SCRATCH/511017/C31662-P55

>  <fragmenstein_runtime>  (1473) 
16.78278613090515

>  <fragmenstein_outcome>  (1473) 
too moved

>  <fragmenstein_mode>  (1473) 
expansion

>  <fragmenstein_error>  (1473) 


$$$$
C31662-P35
     RDKit          3D

 35 38  0  0  0  0  0  0  0  0999 V2000
   -1.6343   -8.3549   25.8693 O   0  0  0  0  0  0  0  0  0  0  0  0
   -2.2699   -9.2654   25.3316 C   0  0  0  0  0  0  0  0  0  0  0  0
   -2.7961   -9.3244   23.6420 N   0  0  0  0  0  0  0  0  0  0  0  0
   -2.4993   -8.3743   22.4744 C   0  0  0  0  0  0  0  0  0  0  0  0
   -2.7369   -8.6493   21.1308 C   0  0  0  0  0  0  0  0  0  0  0  0
   -1.9503   -8.0334   20.0769 C   0  0  0  0  0  0  0  0  0  0  0  0
   -0.8560   -7.1722   20.3510 C   0  0  0  0  0  0  0  0  0  0  0  0
    0.0623   -6.5160   19.5389 N   0  0  0  0  0  0  0  0  0  0  0  0
    0.9056   -5.9342   20.3673 C   0  0  0  0  0  0  0  0  0  0  0  0
    0.5544   -6.1531   21.6726 N   0  0  0  0  0  0  0  0  0  0  0  0
   -0.5953   -6.9115   21.6833 C   0  0  0  0  0  0  0  0  0  0  0  0
   -1.3949   -7.4535   22.7210 C   0  0  0  0  0  0  0  0  0  0  0  0
   -2.4604  -10.8772   26.6086 C   0  0  0  0  0  0  0  0  0  0  0  0
   -3.3415  -12.0349   26.3503 C   0  0  0  0  0  0  0  0  0  0  0  0
   -4.1576  -12.5058   27.7307 C   0  0  0  0  0  0  0  0  0  0  0  0
   -3.7490  -12.3820   29.0936 C   0  0  0  0  0  0  0  0  0  0  0  0
   -4.4725  -12.8894   30.1963 N   0  0  0  0  0  0  0  0  0  0  0  0
   -4.0418  -12.8857   31.5080 C   0  0  0  0  0  0  0  0  0  0  0  0
   -5.0524  -13.4608   32.2367 C   0  0  0  0  0  0  0  0  0  0  0  0
   -6.0993  -13.7895   31.4249 N   0  0  0  0  0  0  0  0  0  0  0  0
   -5.7280  -13.4317   30.2159 C   0  0  0  0  0  0  0  0  0  0  0  0
   -2.7054  -11.5407   29.3609 N   0  0  0  0  0  0  0  0  0  0  0  0
   -1.9868  -10.8488   28.2137 C   0  0  0  0  0  0  0  0  0  0  0  0
   -3.3788  -10.1295   23.5008 H   0  0  0  0  0  0  0  0  0  0  0  0
   -3.4695   -9.4027   20.8550 H   0  0  0  0  0  0  0  0  0  0  0  0
   -2.1493   -8.2990   19.0431 H   0  0  0  0  0  0  0  0  0  0  0  0
    1.7752   -5.3571   20.0885 H   0  0  0  0  0  0  0  0  0  0  0  0
    1.0552   -5.8522   22.4963 H   0  0  0  0  0  0  0  0  0  0  0  0
   -1.0877   -7.2557   23.7456 H   0  0  0  0  0  0  0  0  0  0  0  0
   -3.5401  -12.2531   25.3056 H   0  0  0  0  0  0  0  0  0  0  0  0
   -5.2385  -12.6884   27.6314 H   0  0  0  0  0  0  0  0  0  0  0  0
   -3.0700  -12.5011   31.7827 H   0  0  0  0  0  0  0  0  0  0  0  0
   -5.0854  -13.6540   33.3004 H   0  0  0  0  0  0  0  0  0  0  0  0
   -6.3449  -13.5228   29.3350 H   0  0  0  0  0  0  0  0  0  0  0  0
   -1.1417  -10.2012   28.5196 H   0  0  0  0  0  0  0  0  0  0  0  0
  1  2  2  0
  2  3  1  0
  3  4  1  0
  4  5  2  0
  5  6  1  0
  6  7  2  0
  7  8  1  0
  8  9  2  0
  9 10  1  0
 10 11  1  0
 11 12  2  0
  2 13  1  0
 13 14  2  0
 14 15  1  0
 15 16  2  0
 16 17  1  0
 17 18  1  0
 18 19  2  0
 19 20  1  0
 20 21  2  0
 16 22  1  0
 22 23  2  0
 12  4  1  0
 23 13  1  0
 11  7  1  0
 21 17  1  0
  3 24  1  0
  5 25  1  0
  6 26  1  0
  9 27  1  0
 10 28  1  0
 12 29  1  0
 14 30  1  0
 15 31  1  0
 18 32  1  0
 19 33  1  0
 21 34  1  0
 23 35  1  0
M  END
>  <Energy>  (1474) 
288.63329672986623

>  <compound_id>  (1474) 
31662

>  <target_id>  (1474) 
1

>  <reference_id>  (1474) 
35

>  <inspiration_ids>  (1474) 
[55, 35]

>  <energy_score>  (1474) 
205.25840204910753

>  <distance_score>  (1474) 
15.524680787169135

>  <path>  (1474) 
/opt/xchem-fragalysis-2/maxwin/BulkDock/SCRATCH/511017/C31662-P35/C31662-P35.minimised.mol

>  <scratch_subdir>  (1474) 
/opt/xchem-fragalysis-2/maxwin/BulkDock/SCRATCH/511017/C31662-P35

>  <fragmenstein_runtime>  (1474) 
19.931713104248047

>  <fragmenstein_outcome>  (1474) 
too moved

>  <fragmenstein_mode>  (1474) 
expansion

>  <fragmenstein_error>  (1474) 


$$$$
C31663-P55
     RDKit          3D

 38 40  0  0  0  0  0  0  0  0999 V2000
    3.6507   -4.9944   15.3853 C   0  0  0  0  0  0  0  0  0  0  0  0
    3.8277   -6.0888   16.2801 O   0  0  0  0  0  0  0  0  0  0  0  0
    5.0839   -6.5319   16.5347 C   0  0  0  0  0  0  0  0  0  0  0  0
    6.1400   -6.1310   16.1020 O   0  0  0  0  0  0  0  0  0  0  0  0
    5.0371   -7.5755   17.4930 C   0  0  0  0  0  0  0  0  0  0  0  0
    4.1642   -8.5250   17.3011 N   0  0  0  0  0  0  0  0  0  0  0  0
    3.8775   -8.9084   18.5461 C   0  0  0  0  0  0  0  0  0  0  0  0
    2.0857   -9.1599   19.2725 C   0  0  0  0  0  0  0  0  0  0  0  0
    1.1447   -9.2789   20.9727 C   0  0  0  0  0  0  0  0  0  0  0  0
    0.0627  -10.8209   21.7053 N   0  0  0  0  0  0  0  0  0  0  0  0
   -1.3919  -12.0114   20.9026 C   0  0  0  0  0  0  0  0  0  0  0  0
   -1.7874  -11.6854   19.7910 O   0  0  0  0  0  0  0  0  0  0  0  0
   -2.2995  -13.9916   21.4672 C   0  0  0  0  0  0  0  0  0  0  0  0
   -3.4275  -14.9306   23.1775 C   0  0  0  0  0  0  0  0  0  0  0  0
   -1.4230  -14.7751   23.2247 N   0  0  0  0  0  0  0  0  0  0  0  0
   -2.2955  -15.4244   24.7272 C   0  0  0  0  0  0  0  0  0  0  0  0
   -2.4609  -14.5097   25.7375 C   0  0  0  0  0  0  0  0  0  0  0  0
   -1.4686  -13.6889   25.4433 N   0  0  0  0  0  0  0  0  0  0  0  0
   -0.7258  -14.2461   24.3176 C   0  0  0  0  0  0  0  0  0  0  0  0
    2.5843   -8.5571   22.1183 C   0  0  0  0  0  0  0  0  0  0  0  0
    4.6014   -8.0701   21.9038 C   0  0  0  0  0  0  0  0  0  0  0  0
    5.0958   -8.0023   19.8149 C   0  0  0  0  0  0  0  0  0  0  0  0
    5.8969   -7.6824   18.6092 N   0  0  0  0  0  0  0  0  0  0  0  0
    2.7230   -4.4839   15.6592 H   0  0  0  0  0  0  0  0  0  0  0  0
    3.5432   -5.3743   14.3662 H   0  0  0  0  0  0  0  0  0  0  0  0
    4.4636   -4.2696   15.4510 H   0  0  0  0  0  0  0  0  0  0  0  0
    1.4441   -8.9632   18.3977 H   0  0  0  0  0  0  0  0  0  0  0  0
    0.2495  -11.1292   22.6436 H   0  0  0  0  0  0  0  0  0  0  0  0
   -2.0272  -14.7209   20.6367 H   0  0  0  0  0  0  0  0  0  0  0  0
   -3.7370  -16.0377   23.0624 H   0  0  0  0  0  0  0  0  0  0  0  0
   -3.8849  -14.2755   24.0117 H   0  0  0  0  0  0  0  0  0  0  0  0
   -4.6245  -15.0897   23.1273 H   0  0  0  0  0  0  0  0  0  0  0  0
   -2.8394  -16.3812   24.6661 H   0  0  0  0  0  0  0  0  0  0  0  0
   -3.0798  -14.4789   26.6215 H   0  0  0  0  0  0  0  0  0  0  0  0
    0.3572  -14.2029   24.2460 H   0  0  0  0  0  0  0  0  0  0  0  0
    2.2346   -8.3012   23.1210 H   0  0  0  0  0  0  0  0  0  0  0  0
    5.1334   -7.4137   22.6750 H   0  0  0  0  0  0  0  0  0  0  0  0
    6.7096   -7.0965   18.6605 H   0  0  0  0  0  0  0  0  0  0  0  0
  1  2  1  0
  2  3  1  0
  3  4  2  0
  3  5  1  0
  5  6  2  0
  6  7  1  0
  7  8  2  0
  8  9  1  0
  9 10  1  0
 10 11  1  0
 11 12  2  0
 11 13  1  0
 13 14  1  0
 13 15  1  0
 15 16  1  0
 16 17  2  0
 17 18  1  0
 18 19  2  0
  9 20  2  0
 20 21  1  0
 21 22  2  0
 22 23  1  0
 23  5  1  0
 22  7  1  0
 19 15  1  0
  1 24  1  0
  1 25  1  0
  1 26  1  0
  8 27  1  0
 10 28  1  0
 13 29  1  0
 14 30  1  0
 14 31  1  0
 14 32  1  0
 16 33  1  0
 17 34  1  0
 19 35  1  0
 20 36  1  0
 21 37  1  0
 23 38  1  0
M  END
>  <Energy>  (1475) 
1900.7129643109981

>  <compound_id>  (1475) 
31663

>  <target_id>  (1475) 
1

>  <reference_id>  (1475) 
55

>  <inspiration_ids>  (1475) 
[55, 35]

>  <energy_score>  (1475) 
1842.6653784315986

>  <distance_score>  (1475) 
14.104991001208974

>  <path>  (1475) 
/opt/xchem-fragalysis-2/maxwin/BulkDock/SCRATCH/511017/C31663-P55/C31663-P55.minimised.mol

>  <scratch_subdir>  (1475) 
/opt/xchem-fragalysis-2/maxwin/BulkDock/SCRATCH/511017/C31663-P55

>  <fragmenstein_runtime>  (1475) 
28.851080656051636

>  <fragmenstein_outcome>  (1475) 
too moved

>  <fragmenstein_mode>  (1475) 
expansion

>  <fragmenstein_error>  (1475) 


$$$$
C31663-P35
     RDKit          3D

 38 40  0  0  0  0  0  0  0  0999 V2000
    1.1969   -1.8783   23.9186 C   0  0  0  0  0  0  0  0  0  0  0  0
    0.5166   -3.1310   23.9055 O   0  0  0  0  0  0  0  0  0  0  0  0
    0.5356   -3.7658   22.7001 C   0  0  0  0  0  0  0  0  0  0  0  0
    1.0885   -3.3387   21.6919 O   0  0  0  0  0  0  0  0  0  0  0  0
   -0.1881   -5.0166   22.7669 C   0  0  0  0  0  0  0  0  0  0  0  0
   -0.9130   -5.4524   23.7845 N   0  0  0  0  0  0  0  0  0  0  0  0
   -1.5556   -6.5951   23.3462 C   0  0  0  0  0  0  0  0  0  0  0  0
   -2.5352   -7.4315   23.9970 C   0  0  0  0  0  0  0  0  0  0  0  0
   -3.0913   -8.5496   23.3402 C   0  0  0  0  0  0  0  0  0  0  0  0
   -3.9035   -9.6249   23.9215 N   0  0  0  0  0  0  0  0  0  0  0  0
   -4.4000   -9.8383   25.3365 C   0  0  0  0  0  0  0  0  0  0  0  0
   -4.3157   -9.1338   26.3087 O   0  0  0  0  0  0  0  0  0  0  0  0
   -5.0311  -11.3237   25.4603 C   0  0  0  0  0  0  0  0  0  0  0  0
   -3.8768  -12.2739   25.8338 C   0  0  0  0  0  0  0  0  0  0  0  0
   -6.1450  -11.7716   26.3720 N   0  0  0  0  0  0  0  0  0  0  0  0
   -6.1810  -11.7209   27.7469 C   0  0  0  0  0  0  0  0  0  0  0  0
   -6.9810  -12.7705   28.1554 C   0  0  0  0  0  0  0  0  0  0  0  0
   -7.4564  -13.4685   27.0812 N   0  0  0  0  0  0  0  0  0  0  0  0
   -6.9655  -12.8466   26.0320 C   0  0  0  0  0  0  0  0  0  0  0  0
   -2.6219   -8.7722   22.0133 C   0  0  0  0  0  0  0  0  0  0  0  0
   -1.6268   -7.9943   21.3590 C   0  0  0  0  0  0  0  0  0  0  0  0
   -1.1269   -6.9021   22.0579 C   0  0  0  0  0  0  0  0  0  0  0  0
   -0.2278   -5.9166   21.7290 N   0  0  0  0  0  0  0  0  0  0  0  0
    0.7326   -1.1814   23.2138 H   0  0  0  0  0  0  0  0  0  0  0  0
    2.2577   -2.0151   23.6863 H   0  0  0  0  0  0  0  0  0  0  0  0
    1.1152   -1.4578   24.9247 H   0  0  0  0  0  0  0  0  0  0  0  0
   -2.8161   -7.1926   25.0189 H   0  0  0  0  0  0  0  0  0  0  0  0
   -4.2259  -10.3977   23.3296 H   0  0  0  0  0  0  0  0  0  0  0  0
   -5.4403  -11.5607   24.4772 H   0  0  0  0  0  0  0  0  0  0  0  0
   -2.9066  -11.8159   25.6946 H   0  0  0  0  0  0  0  0  0  0  0  0
   -3.9416  -13.2044   25.2629 H   0  0  0  0  0  0  0  0  0  0  0  0
   -3.8789  -12.5655   26.8909 H   0  0  0  0  0  0  0  0  0  0  0  0
   -5.6070  -10.9928   28.3044 H   0  0  0  0  0  0  0  0  0  0  0  0
   -7.2268  -13.0576   29.1697 H   0  0  0  0  0  0  0  0  0  0  0  0
   -7.1150  -13.1461   25.0026 H   0  0  0  0  0  0  0  0  0  0  0  0
   -3.0106   -9.6236   21.4512 H   0  0  0  0  0  0  0  0  0  0  0  0
   -1.2941   -8.2443   20.3556 H   0  0  0  0  0  0  0  0  0  0  0  0
    0.2534   -5.8039   20.8471 H   0  0  0  0  0  0  0  0  0  0  0  0
  1  2  1  0
  2  3  1  0
  3  4  2  0
  3  5  1  0
  5  6  2  0
  6  7  1  0
  7  8  2  0
  8  9  1  0
  9 10  1  0
 10 11  1  0
 11 12  2  0
 11 13  1  0
 13 14  1  0
 13 15  1  0
 15 16  1  0
 16 17  2  0
 17 18  1  0
 18 19  2  0
  9 20  2  0
 20 21  1  0
 21 22  2  0
 22 23  1  0
 23  5  1  0
 22  7  1  0
 19 15  1  0
  1 24  1  0
  1 25  1  0
  1 26  1  0
  8 27  1  0
 10 28  1  0
 13 29  1  0
 14 30  1  0
 14 31  1  0
 14 32  1  0
 16 33  1  0
 17 34  1  0
 19 35  1  0
 20 36  1  0
 21 37  1  0
 23 38  1  0
M  END
>  <Energy>  (1476) 
64.800442392810126

>  <compound_id>  (1476) 
31663

>  <target_id>  (1476) 
1

>  <reference_id>  (1476) 
35

>  <inspiration_ids>  (1476) 
[55, 35]

>  <energy_score>  (1476) 
6.752856513382653

>  <distance_score>  (1476) 
16.319223913674485

>  <path>  (1476) 
/opt/xchem-fragalysis-2/maxwin/BulkDock/SCRATCH/511017/C31663-P35/C31663-P35.minimised.mol

>  <scratch_subdir>  (1476) 
/opt/xchem-fragalysis-2/maxwin/BulkDock/SCRATCH/511017/C31663-P35

>  <fragmenstein_runtime>  (1476) 
18.51172637939453

>  <fragmenstein_outcome>  (1476) 
too moved

>  <fragmenstein_mode>  (1476) 
expansion

>  <fragmenstein_error>  (1476) 


$$$$
C31664-P55
     RDKit          3D

 41 43  0  0  0  0  0  0  0  0999 V2000
    8.4336  -12.6272   18.5073 C   0  0  0  0  0  0  0  0  0  0  0  0
    7.5737  -13.3680   19.5773 C   0  0  0  0  0  0  0  0  0  0  0  0
    6.2638  -12.5799   20.1910 C   0  0  0  0  0  0  0  0  0  0  0  0
    6.1949  -11.4628   19.4890 N   0  0  0  0  0  0  0  0  0  0  0  0
    5.6429  -12.0179   18.3533 C   0  0  0  0  0  0  0  0  0  0  0  0
    5.7649  -11.6148   17.0052 C   0  0  0  0  0  0  0  0  0  0  0  0
    5.0430  -12.2979   16.0397 C   0  0  0  0  0  0  0  0  0  0  0  0
    4.1964  -13.3384   16.4201 C   0  0  0  0  0  0  0  0  0  0  0  0
    4.0255  -13.7346   17.7646 C   0  0  0  0  0  0  0  0  0  0  0  0
    4.7593  -13.0672   18.7533 C   0  0  0  0  0  0  0  0  0  0  0  0
    4.8514  -13.0937   20.2518 N   0  0  0  0  0  0  0  0  0  0  0  0
    3.5368  -13.7607   21.4719 C   0  0  0  0  0  0  0  0  0  0  0  0
    3.5087  -14.8203   23.2947 C   0  0  0  0  0  0  0  0  0  0  0  0
    3.3005  -14.0398   24.2078 O   0  0  0  0  0  0  0  0  0  0  0  0
    3.5906  -16.6726   23.5454 N   0  0  0  0  0  0  0  0  0  0  0  0
    3.2188  -17.8264   25.1506 C   0  0  0  0  0  0  0  0  0  0  0  0
    1.9980  -19.2287   24.9778 C   0  0  0  0  0  0  0  0  0  0  0  0
    1.4297  -19.9553   26.1325 N   0  0  0  0  0  0  0  0  0  0  0  0
    0.8115  -21.1910   26.0268 C   0  0  0  0  0  0  0  0  0  0  0  0
    0.1875  -21.4113   27.2331 C   0  0  0  0  0  0  0  0  0  0  0  0
    0.3933  -20.3493   28.0707 N   0  0  0  0  0  0  0  0  0  0  0  0
    1.1269  -19.4939   27.3849 C   0  0  0  0  0  0  0  0  0  0  0  0
    8.4482  -11.5453   18.6026 H   0  0  0  0  0  0  0  0  0  0  0  0
    9.4542  -13.0192   18.5130 H   0  0  0  0  0  0  0  0  0  0  0  0
    8.0655  -12.8657   17.5039 H   0  0  0  0  0  0  0  0  0  0  0  0
    7.2342  -14.2897   19.0842 H   0  0  0  0  0  0  0  0  0  0  0  0
    8.2068  -13.6422   20.4066 H   0  0  0  0  0  0  0  0  0  0  0  0
    6.4156  -10.7945   16.7324 H   0  0  0  0  0  0  0  0  0  0  0  0
    5.1284  -12.0103   14.9965 H   0  0  0  0  0  0  0  0  0  0  0  0
    3.6269  -13.8579   15.6517 H   0  0  0  0  0  0  0  0  0  0  0  0
    3.3387  -14.5338   18.0164 H   0  0  0  0  0  0  0  0  0  0  0  0
    2.7721  -14.0571   20.7508 H   0  0  0  0  0  0  0  0  0  0  0  0
    3.4439  -12.7217   21.8405 H   0  0  0  0  0  0  0  0  0  0  0  0
    3.8289  -17.0712   22.7589 H   0  0  0  0  0  0  0  0  0  0  0  0
    3.0295  -17.3636   26.1337 H   0  0  0  0  0  0  0  0  0  0  0  0
    3.7564  -18.7257   25.4526 H   0  0  0  0  0  0  0  0  0  0  0  0
    1.0966  -19.0124   24.4021 H   0  0  0  0  0  0  0  0  0  0  0  0
    2.5465  -19.9853   24.3944 H   0  0  0  0  0  0  0  0  0  0  0  0
    0.8553  -21.7763   25.1189 H   0  0  0  0  0  0  0  0  0  0  0  0
   -0.4008  -22.2674   27.5363 H   0  0  0  0  0  0  0  0  0  0  0  0
    1.4469  -18.5261   27.7478 H   0  0  0  0  0  0  0  0  0  0  0  0
  1  2  1  0
  2  3  1  0
  3  4  2  0
  4  5  1  0
  5  6  2  0
  6  7  1  0
  7  8  2  0
  8  9  1  0
  9 10  2  0
 10 11  1  0
 11 12  1  0
 12 13  1  0
 13 14  2  0
 13 15  1  0
 15 16  1  0
 16 17  1  0
 17 18  1  0
 18 19  1  0
 19 20  2  0
 20 21  1  0
 21 22  2  0
 11  3  1  0
 22 18  1  0
 10  5  1  0
  1 23  1  0
  1 24  1  0
  1 25  1  0
  2 26  1  0
  2 27  1  0
  6 28  1  0
  7 29  1  0
  8 30  1  0
  9 31  1  0
 12 32  1  0
 12 33  1  0
 15 34  1  0
 16 35  1  0
 16 36  1  0
 17 37  1  0
 17 38  1  0
 19 39  1  0
 20 40  1  0
 22 41  1  0
M  END
>  <Energy>  (1477) 
521.60729883960039

>  <compound_id>  (1477) 
31664

>  <target_id>  (1477) 
1

>  <reference_id>  (1477) 
55

>  <inspiration_ids>  (1477) 
[55, 35]

>  <energy_score>  (1477) 
479.57762235062273

>  <distance_score>  (1477) 
14.253487713209667

>  <path>  (1477) 
/opt/xchem-fragalysis-2/maxwin/BulkDock/SCRATCH/511017/C31664-P55/C31664-P55.minimised.mol

>  <scratch_subdir>  (1477) 
/opt/xchem-fragalysis-2/maxwin/BulkDock/SCRATCH/511017/C31664-P55

>  <fragmenstein_runtime>  (1477) 
23.161444664001465

>  <fragmenstein_outcome>  (1477) 
too moved

>  <fragmenstein_mode>  (1477) 
expansion

>  <fragmenstein_error>  (1477) 


$$$$
C31664-P35
     RDKit          3D

 41 43  0  0  0  0  0  0  0  0999 V2000
    7.9333   -7.5093   27.8744 C   0  0  0  0  0  0  0  0  0  0  0  0
    6.9121   -8.4929   27.2596 C   0  0  0  0  0  0  0  0  0  0  0  0
    6.6328   -8.1346   25.7910 C   0  0  0  0  0  0  0  0  0  0  0  0
    7.6871   -7.8284   25.0336 N   0  0  0  0  0  0  0  0  0  0  0  0
    8.0915   -9.0530   24.8670 C   0  0  0  0  0  0  0  0  0  0  0  0
    9.3902   -9.5774   24.9493 C   0  0  0  0  0  0  0  0  0  0  0  0
    9.5095  -10.9514   24.9525 C   0  0  0  0  0  0  0  0  0  0  0  0
    8.3579  -11.7273   24.8495 C   0  0  0  0  0  0  0  0  0  0  0  0
    7.0573  -11.1723   24.7089 C   0  0  0  0  0  0  0  0  0  0  0  0
    6.9022   -9.7767   24.6825 C   0  0  0  0  0  0  0  0  0  0  0  0
    5.6623   -8.6511   24.9037 N   0  0  0  0  0  0  0  0  0  0  0  0
    4.4927   -7.7520   23.6618 C   0  0  0  0  0  0  0  0  0  0  0  0
    2.5905   -8.2775   22.9628 C   0  0  0  0  0  0  0  0  0  0  0  0
    2.4352   -8.9575   22.0348 O   0  0  0  0  0  0  0  0  0  0  0  0
    1.1242   -7.5704   23.6885 N   0  0  0  0  0  0  0  0  0  0  0  0
   -0.3695   -7.6010   23.2561 C   0  0  0  0  0  0  0  0  0  0  0  0
   -1.5999   -7.4171   24.3935 C   0  0  0  0  0  0  0  0  0  0  0  0
   -2.7671   -8.3290   24.5755 N   0  0  0  0  0  0  0  0  0  0  0  0
   -3.5910   -8.9009   23.6352 C   0  0  0  0  0  0  0  0  0  0  0  0
   -4.4190   -9.7733   24.3230 C   0  0  0  0  0  0  0  0  0  0  0  0
   -4.1350   -9.7536   25.6581 N   0  0  0  0  0  0  0  0  0  0  0  0
   -3.2283   -8.8084   25.7957 C   0  0  0  0  0  0  0  0  0  0  0  0
    8.1878   -7.8480   28.8848 H   0  0  0  0  0  0  0  0  0  0  0  0
    8.8653   -7.4595   27.3036 H   0  0  0  0  0  0  0  0  0  0  0  0
    7.5271   -6.4998   27.9725 H   0  0  0  0  0  0  0  0  0  0  0  0
    5.9940   -8.5388   27.8475 H   0  0  0  0  0  0  0  0  0  0  0  0
    7.3331   -9.5032   27.3372 H   0  0  0  0  0  0  0  0  0  0  0  0
   10.2490   -8.9324   25.0949 H   0  0  0  0  0  0  0  0  0  0  0  0
   10.4811  -11.4277   25.0503 H   0  0  0  0  0  0  0  0  0  0  0  0
    8.4821  -12.8086   24.8862 H   0  0  0  0  0  0  0  0  0  0  0  0
    6.2280  -11.8438   24.7456 H   0  0  0  0  0  0  0  0  0  0  0  0
    3.9268   -7.2303   24.4065 H   0  0  0  0  0  0  0  0  0  0  0  0
    5.2330   -7.0394   23.3068 H   0  0  0  0  0  0  0  0  0  0  0  0
    1.4057   -6.9522   24.4067 H   0  0  0  0  0  0  0  0  0  0  0  0
   -0.4512   -6.7302   22.5943 H   0  0  0  0  0  0  0  0  0  0  0  0
   -0.5245   -8.4762   22.6173 H   0  0  0  0  0  0  0  0  0  0  0  0
   -1.1192   -7.3359   25.3766 H   0  0  0  0  0  0  0  0  0  0  0  0
   -2.0657   -6.4454   24.1839 H   0  0  0  0  0  0  0  0  0  0  0  0
   -3.5173   -8.6567   22.5838 H   0  0  0  0  0  0  0  0  0  0  0  0
   -5.1935  -10.4132   23.9183 H   0  0  0  0  0  0  0  0  0  0  0  0
   -2.8187   -8.4641   26.7382 H   0  0  0  0  0  0  0  0  0  0  0  0
  1  2  1  0
  2  3  1  0
  3  4  2  0
  4  5  1  0
  5  6  2  0
  6  7  1  0
  7  8  2  0
  8  9  1  0
  9 10  2  0
 10 11  1  0
 11 12  1  0
 12 13  1  0
 13 14  2  0
 13 15  1  0
 15 16  1  0
 16 17  1  0
 17 18  1  0
 18 19  1  0
 19 20  2  0
 20 21  1  0
 21 22  2  0
 11  3  1  0
 22 18  1  0
 10  5  1  0
  1 23  1  0
  1 24  1  0
  1 25  1  0
  2 26  1  0
  2 27  1  0
  6 28  1  0
  7 29  1  0
  8 30  1  0
  9 31  1  0
 12 32  1  0
 12 33  1  0
 15 34  1  0
 16 35  1  0
 16 36  1  0
 17 37  1  0
 17 38  1  0
 19 39  1  0
 20 40  1  0
 22 41  1  0
M  END
>  <Energy>  (1478) 
384.30653935944986

>  <compound_id>  (1478) 
31664

>  <target_id>  (1478) 
1

>  <reference_id>  (1478) 
35

>  <inspiration_ids>  (1478) 
[55, 35]

>  <energy_score>  (1478) 
342.27686287048175

>  <distance_score>  (1478) 
16.576569378289395

>  <path>  (1478) 
/opt/xchem-fragalysis-2/maxwin/BulkDock/SCRATCH/511017/C31664-P35/C31664-P35.minimised.mol

>  <scratch_subdir>  (1478) 
/opt/xchem-fragalysis-2/maxwin/BulkDock/SCRATCH/511017/C31664-P35

>  <fragmenstein_runtime>  (1478) 
26.39260244369507

>  <fragmenstein_outcome>  (1478) 
too moved

>  <fragmenstein_mode>  (1478) 
expansion

>  <fragmenstein_error>  (1478) 


$$$$
C31665-P55
     RDKit          3D

 32 34  0  0  0  0  0  0  0  0999 V2000
    3.9032  -12.7601   21.2817 O   0  0  0  0  0  0  0  0  0  0  0  0
    4.4620  -12.8974   20.2414 C   0  0  0  0  0  0  0  0  0  0  0  0
    3.7180  -13.9152   18.9093 N   0  0  0  0  0  0  0  0  0  0  0  0
    2.1759  -14.9877   18.8801 C   0  0  0  0  0  0  0  0  0  0  0  0
    0.6580  -16.1701   19.8315 C   0  0  0  0  0  0  0  0  0  0  0  0
    0.0314  -17.7888   19.7614 N   0  0  0  0  0  0  0  0  0  0  0  0
   -0.6650  -18.4333   20.7529 C   0  0  0  0  0  0  0  0  0  0  0  0
   -1.1107  -19.6435   20.3067 C   0  0  0  0  0  0  0  0  0  0  0  0
   -0.6205  -19.8477   19.0609 N   0  0  0  0  0  0  0  0  0  0  0  0
    0.1372  -18.7955   18.8074 C   0  0  0  0  0  0  0  0  0  0  0  0
    6.1349  -12.0896   20.3316 C   0  0  0  0  0  0  0  0  0  0  0  0
    6.6495  -11.1341   19.5193 C   0  0  0  0  0  0  0  0  0  0  0  0
    8.1419  -10.6671   19.3797 C   0  0  0  0  0  0  0  0  0  0  0  0
    8.5622  -10.3069   18.1569 F   0  0  0  0  0  0  0  0  0  0  0  0
    9.1545  -10.9237   20.2278 C   0  0  0  0  0  0  0  0  0  0  0  0
    8.5421  -11.3066   21.3599 C   0  0  0  0  0  0  0  0  0  0  0  0
    9.1160  -11.2235   22.6114 N   0  0  0  0  0  0  0  0  0  0  0  0
    8.1056  -11.1264   23.4889 C   0  0  0  0  0  0  0  0  0  0  0  0
    6.9770  -11.3693   22.8748 N   0  0  0  0  0  0  0  0  0  0  0  0
    7.1543  -11.6792   21.4828 C   0  0  0  0  0  0  0  0  0  0  0  0
    4.3423  -13.9807   18.1818 H   0  0  0  0  0  0  0  0  0  0  0  0
    2.6365  -15.6342   18.1622 H   0  0  0  0  0  0  0  0  0  0  0  0
    2.3662  -14.8559   19.9483 H   0  0  0  0  0  0  0  0  0  0  0  0
   -0.3935  -15.8330   19.7228 H   0  0  0  0  0  0  0  0  0  0  0  0
    0.7158  -16.1053   20.8943 H   0  0  0  0  0  0  0  0  0  0  0  0
   -0.6714  -18.0129   21.7037 H   0  0  0  0  0  0  0  0  0  0  0  0
   -1.6869  -20.3938   20.8296 H   0  0  0  0  0  0  0  0  0  0  0  0
    0.8153  -18.7223   17.9708 H   0  0  0  0  0  0  0  0  0  0  0  0
    6.0131  -10.9236   18.6794 H   0  0  0  0  0  0  0  0  0  0  0  0
   10.1830  -10.6474   20.0821 H   0  0  0  0  0  0  0  0  0  0  0  0
   10.0838  -11.0108   22.8055 H   0  0  0  0  0  0  0  0  0  0  0  0
    8.2212  -10.8879   24.5375 H   0  0  0  0  0  0  0  0  0  0  0  0
  1  2  2  0
  2  3  1  0
  3  4  1  0
  4  5  1  0
  5  6  1  0
  6  7  1  0
  7  8  2  0
  8  9  1  0
  9 10  2  0
  2 11  1  0
 11 12  2  0
 12 13  1  0
 13 14  1  0
 13 15  2  0
 15 16  1  0
 16 17  1  0
 17 18  1  0
 18 19  2  0
 19 20  1  0
 10  6  1  0
 20 11  1  0
 20 16  2  0
  3 21  1  0
  4 22  1  0
  4 23  1  0
  5 24  1  0
  5 25  1  0
  7 26  1  0
  8 27  1  0
 10 28  1  0
 12 29  1  0
 15 30  1  0
 17 31  1  0
 18 32  1  0
M  END
>  <Energy>  (1479) 
481.49778225748878

>  <compound_id>  (1479) 
31665

>  <target_id>  (1479) 
1

>  <reference_id>  (1479) 
55

>  <inspiration_ids>  (1479) 
[55, 35]

>  <energy_score>  (1479) 
456.25878998696624

>  <distance_score>  (1479) 
14.866427993283967

>  <path>  (1479) 
/opt/xchem-fragalysis-2/maxwin/BulkDock/SCRATCH/511017/C31665-P55/C31665-P55.minimised.mol

>  <scratch_subdir>  (1479) 
/opt/xchem-fragalysis-2/maxwin/BulkDock/SCRATCH/511017/C31665-P55

>  <fragmenstein_runtime>  (1479) 
17.489184141159058

>  <fragmenstein_outcome>  (1479) 
too moved

>  <fragmenstein_mode>  (1479) 
expansion

>  <fragmenstein_error>  (1479) 


$$$$
C31665-P35
     RDKit          3D

 32 34  0  0  0  0  0  0  0  0999 V2000
    0.4748   -8.2690   21.9694 O   0  0  0  0  0  0  0  0  0  0  0  0
    0.0377   -9.0388   21.1511 C   0  0  0  0  0  0  0  0  0  0  0  0
   -0.3234  -10.4921   21.2744 N   0  0  0  0  0  0  0  0  0  0  0  0
   -0.1184  -11.6612   22.6447 C   0  0  0  0  0  0  0  0  0  0  0  0
   -0.4269  -13.6615   23.4169 C   0  0  0  0  0  0  0  0  0  0  0  0
   -1.4540  -13.8619   25.0828 N   0  0  0  0  0  0  0  0  0  0  0  0
   -1.5553  -13.1542   26.3265 C   0  0  0  0  0  0  0  0  0  0  0  0
   -2.5769  -13.7029   27.0815 C   0  0  0  0  0  0  0  0  0  0  0  0
   -3.2345  -14.6913   26.4256 N   0  0  0  0  0  0  0  0  0  0  0  0
   -2.6415  -14.7737   25.2620 C   0  0  0  0  0  0  0  0  0  0  0  0
   -0.0496   -8.3278   19.5379 C   0  0  0  0  0  0  0  0  0  0  0  0
    1.1909   -8.0511   18.8520 C   0  0  0  0  0  0  0  0  0  0  0  0
    1.4347   -7.2155   17.7660 C   0  0  0  0  0  0  0  0  0  0  0  0
    2.6802   -6.9620   17.3565 F   0  0  0  0  0  0  0  0  0  0  0  0
    0.3831   -6.7191   17.0687 C   0  0  0  0  0  0  0  0  0  0  0  0
   -0.8226   -7.3082   17.4335 C   0  0  0  0  0  0  0  0  0  0  0  0
   -2.0403   -7.1823   16.8307 N   0  0  0  0  0  0  0  0  0  0  0  0
   -2.9128   -7.9785   17.4976 C   0  0  0  0  0  0  0  0  0  0  0  0
   -2.3591   -8.5809   18.5228 N   0  0  0  0  0  0  0  0  0  0  0  0
   -1.0549   -8.1547   18.5606 C   0  0  0  0  0  0  0  0  0  0  0  0
   -0.7432  -10.8070   20.4003 H   0  0  0  0  0  0  0  0  0  0  0  0
   -1.0456  -11.7034   22.0134 H   0  0  0  0  0  0  0  0  0  0  0  0
    0.9440  -11.5311   22.6272 H   0  0  0  0  0  0  0  0  0  0  0  0
   -0.8372  -14.4637   22.7840 H   0  0  0  0  0  0  0  0  0  0  0  0
    0.4532  -14.0837   23.9334 H   0  0  0  0  0  0  0  0  0  0  0  0
   -0.8100  -12.4324   26.6238 H   0  0  0  0  0  0  0  0  0  0  0  0
   -2.8520  -13.4242   28.0906 H   0  0  0  0  0  0  0  0  0  0  0  0
   -2.9369  -15.4316   24.4629 H   0  0  0  0  0  0  0  0  0  0  0  0
    1.9886   -8.7554   19.0290 H   0  0  0  0  0  0  0  0  0  0  0  0
    0.5043   -6.0784   16.2068 H   0  0  0  0  0  0  0  0  0  0  0  0
   -2.2515   -6.6153   16.0216 H   0  0  0  0  0  0  0  0  0  0  0  0
   -3.9493   -8.0758   17.2020 H   0  0  0  0  0  0  0  0  0  0  0  0
  1  2  2  0
  2  3  1  0
  3  4  1  0
  4  5  1  0
  5  6  1  0
  6  7  1  0
  7  8  2  0
  8  9  1  0
  9 10  2  0
  2 11  1  0
 11 12  2  0
 12 13  1  0
 13 14  1  0
 13 15  2  0
 15 16  1  0
 16 17  1  0
 17 18  1  0
 18 19  2  0
 19 20  1  0
 10  6  1  0
 20 11  1  0
 20 16  2  0
  3 21  1  0
  4 22  1  0
  4 23  1  0
  5 24  1  0
  5 25  1  0
  7 26  1  0
  8 27  1  0
 10 28  1  0
 12 29  1  0
 15 30  1  0
 17 31  1  0
 18 32  1  0
M  END
>  <Energy>  (1480) 
387.25707327261853

>  <compound_id>  (1480) 
31665

>  <target_id>  (1480) 
1

>  <reference_id>  (1480) 
35

>  <inspiration_ids>  (1480) 
[55, 35]

>  <energy_score>  (1480) 
362.018081002102

>  <distance_score>  (1480) 
15.882242041003595

>  <path>  (1480) 
/opt/xchem-fragalysis-2/maxwin/BulkDock/SCRATCH/511017/C31665-P35/C31665-P35.minimised.mol

>  <scratch_subdir>  (1480) 
/opt/xchem-fragalysis-2/maxwin/BulkDock/SCRATCH/511017/C31665-P35

>  <fragmenstein_runtime>  (1480) 
17.940314531326294

>  <fragmenstein_outcome>  (1480) 
too moved

>  <fragmenstein_mode>  (1480) 
expansion

>  <fragmenstein_error>  (1480) 


$$$$
C31687-P55
     RDKit          3D

 44 46  0  0  0  0  0  0  0  0999 V2000
   -1.5454   -5.1734   17.7671 C   0  0  0  0  0  0  0  0  0  0  0  0
   -1.5206   -6.5292   18.3719 C   0  0  0  0  0  0  0  0  0  0  0  0
   -2.5977   -7.1640   18.8019 N   0  0  0  0  0  0  0  0  0  0  0  0
   -2.1676   -8.3174   19.4149 C   0  0  0  0  0  0  0  0  0  0  0  0
   -2.9258   -9.3180   20.0755 C   0  0  0  0  0  0  0  0  0  0  0  0
   -2.2772  -10.4237   20.6223 C   0  0  0  0  0  0  0  0  0  0  0  0
   -0.8864  -10.4995   20.5507 C   0  0  0  0  0  0  0  0  0  0  0  0
   -0.1117   -9.5080   19.8917 C   0  0  0  0  0  0  0  0  0  0  0  0
   -0.7753   -8.4124   19.3092 C   0  0  0  0  0  0  0  0  0  0  0  0
   -0.3712   -7.2687   18.5936 N   0  0  0  0  0  0  0  0  0  0  0  0
    1.0075   -6.9009   18.2237 C   0  0  0  0  0  0  0  0  0  0  0  0
    1.2779   -6.2821   16.8419 C   0  0  0  0  0  0  0  0  0  0  0  0
    2.6092   -6.8224   16.2870 C   0  0  0  0  0  0  0  0  0  0  0  0
    2.7045   -8.0117   16.1755 O   0  0  0  0  0  0  0  0  0  0  0  0
    3.5550   -5.7768   16.0127 N   0  0  0  0  0  0  0  0  0  0  0  0
    4.8947   -5.8234   15.4222 C   0  0  0  0  0  0  0  0  0  0  0  0
    4.7987   -6.3817   13.9931 C   0  0  0  0  0  0  0  0  0  0  0  0
    5.7875   -6.7342   16.2753 C   0  0  0  0  0  0  0  0  0  0  0  0
    5.4557   -4.4091   15.3743 C   0  0  0  0  0  0  0  0  0  0  0  0
    4.8015   -3.2910   15.6377 N   0  0  0  0  0  0  0  0  0  0  0  0
    5.6605   -2.2700   15.3166 C   0  0  0  0  0  0  0  0  0  0  0  0
    6.8682   -2.7621   14.8927 C   0  0  0  0  0  0  0  0  0  0  0  0
    6.7518   -4.1192   14.9954 N   0  0  0  0  0  0  0  0  0  0  0  0
   -1.4289   -5.2298   16.6814 H   0  0  0  0  0  0  0  0  0  0  0  0
   -0.7579   -4.5384   18.1837 H   0  0  0  0  0  0  0  0  0  0  0  0
   -2.5035   -4.6854   17.9741 H   0  0  0  0  0  0  0  0  0  0  0  0
   -4.0040   -9.2163   20.1209 H   0  0  0  0  0  0  0  0  0  0  0  0
   -2.8575  -11.2188   21.0740 H   0  0  0  0  0  0  0  0  0  0  0  0
   -0.3651  -11.3481   20.9928 H   0  0  0  0  0  0  0  0  0  0  0  0
    0.9673   -9.6118   19.8486 H   0  0  0  0  0  0  0  0  0  0  0  0
    1.3551   -6.2257   19.0124 H   0  0  0  0  0  0  0  0  0  0  0  0
    1.5386   -7.8523   18.2723 H   0  0  0  0  0  0  0  0  0  0  0  0
    0.5046   -6.5687   16.1197 H   0  0  0  0  0  0  0  0  0  0  0  0
    1.2767   -5.1903   16.9078 H   0  0  0  0  0  0  0  0  0  0  0  0
    3.1594   -4.8870   16.3032 H   0  0  0  0  0  0  0  0  0  0  0  0
    4.3854   -7.3966   13.9859 H   0  0  0  0  0  0  0  0  0  0  0  0
    5.7808   -6.4217   13.5076 H   0  0  0  0  0  0  0  0  0  0  0  0
    4.1466   -5.7594   13.3682 H   0  0  0  0  0  0  0  0  0  0  0  0
    5.9122   -6.3329   17.2878 H   0  0  0  0  0  0  0  0  0  0  0  0
    5.3636   -7.7396   16.3740 H   0  0  0  0  0  0  0  0  0  0  0  0
    6.7801   -6.8510   15.8298 H   0  0  0  0  0  0  0  0  0  0  0  0
    5.3607   -1.2365   15.4153 H   0  0  0  0  0  0  0  0  0  0  0  0
    7.7726   -2.2744   14.5539 H   0  0  0  0  0  0  0  0  0  0  0  0
    7.4829   -4.7939   14.8075 H   0  0  0  0  0  0  0  0  0  0  0  0
  1  2  1  0
  2  3  2  0
  3  4  1  0
  4  5  2  0
  5  6  1  0
  6  7  2  0
  7  8  1  0
  8  9  2  0
  9 10  1  0
 10 11  1  0
 11 12  1  0
 12 13  1  0
 13 14  2  0
 13 15  1  0
 15 16  1  0
 16 17  1  0
 16 18  1  0
 16 19  1  0
 19 20  2  0
 20 21  1  0
 21 22  2  0
 22 23  1  0
 10  2  1  0
 23 19  1  0
  9  4  1  0
  1 24  1  0
  1 25  1  0
  1 26  1  0
  5 27  1  0
  6 28  1  0
  7 29  1  0
  8 30  1  0
 11 31  1  0
 11 32  1  0
 12 33  1  0
 12 34  1  0
 15 35  1  0
 17 36  1  0
 17 37  1  0
 17 38  1  0
 18 39  1  0
 18 40  1  0
 18 41  1  0
 21 42  1  0
 22 43  1  0
 23 44  1  0
M  END
>  <Energy>  (1481) 
3.6923004839676175

>  <compound_id>  (1481) 
31687

>  <target_id>  (1481) 
1

>  <reference_id>  (1481) 
55

>  <inspiration_ids>  (1481) 
[55, 35]

>  <energy_score>  (1481) 
-20.39422752293342

>  <distance_score>  (1481) 
15.169485995418535

>  <path>  (1481) 
/opt/xchem-fragalysis-2/maxwin/BulkDock/SCRATCH/511017/C31687-P55/C31687-P55.minimised.mol

>  <scratch_subdir>  (1481) 
/opt/xchem-fragalysis-2/maxwin/BulkDock/SCRATCH/511017/C31687-P55

>  <fragmenstein_runtime>  (1481) 
34.78099489212036

>  <fragmenstein_outcome>  (1481) 
too moved

>  <fragmenstein_mode>  (1481) 
expansion

>  <fragmenstein_error>  (1481) 


$$$$
C31687-P35
     RDKit          3D

 44 46  0  0  0  0  0  0  0  0999 V2000
    5.3719   -2.0409   30.7714 C   0  0  0  0  0  0  0  0  0  0  0  0
    4.2145   -2.8190   30.2652 C   0  0  0  0  0  0  0  0  0  0  0  0
    3.6636   -3.7801   30.9942 N   0  0  0  0  0  0  0  0  0  0  0  0
    2.4937   -4.1395   30.3857 C   0  0  0  0  0  0  0  0  0  0  0  0
    1.5133   -5.0803   30.7958 C   0  0  0  0  0  0  0  0  0  0  0  0
    0.3544   -5.2453   30.0349 C   0  0  0  0  0  0  0  0  0  0  0  0
    0.1782   -4.4582   28.8961 C   0  0  0  0  0  0  0  0  0  0  0  0
    1.1603   -3.5214   28.4635 C   0  0  0  0  0  0  0  0  0  0  0  0
    2.3408   -3.3880   29.2165 C   0  0  0  0  0  0  0  0  0  0  0  0
    3.5453   -2.6449   29.0630 N   0  0  0  0  0  0  0  0  0  0  0  0
    3.9400   -1.9773   27.8056 C   0  0  0  0  0  0  0  0  0  0  0  0
    5.0412   -0.9154   27.6343 C   0  0  0  0  0  0  0  0  0  0  0  0
    6.4889   -1.4430   27.5525 C   0  0  0  0  0  0  0  0  0  0  0  0
    6.8293   -2.2522   28.3658 O   0  0  0  0  0  0  0  0  0  0  0  0
    7.2454   -0.7701   26.5163 N   0  0  0  0  0  0  0  0  0  0  0  0
    8.6387   -0.9400   26.0772 C   0  0  0  0  0  0  0  0  0  0  0  0
    9.5760   -0.6692   27.2714 C   0  0  0  0  0  0  0  0  0  0  0  0
    8.8492   -2.3896   25.6129 C   0  0  0  0  0  0  0  0  0  0  0  0
    9.0297    0.0067   24.9481 C   0  0  0  0  0  0  0  0  0  0  0  0
    9.8820   -0.2657   23.9761 N   0  0  0  0  0  0  0  0  0  0  0  0
   10.2313    0.9320   23.4179 C   0  0  0  0  0  0  0  0  0  0  0  0
    9.4677    1.9408   23.9415 C   0  0  0  0  0  0  0  0  0  0  0  0
    8.7058    1.3429   24.9102 N   0  0  0  0  0  0  0  0  0  0  0  0
    5.2373   -1.8573   31.8441 H   0  0  0  0  0  0  0  0  0  0  0  0
    5.4731   -1.0613   30.3079 H   0  0  0  0  0  0  0  0  0  0  0  0
    6.2976   -2.6115   30.6667 H   0  0  0  0  0  0  0  0  0  0  0  0
    1.6787   -5.6631   31.6971 H   0  0  0  0  0  0  0  0  0  0  0  0
   -0.3782   -5.9873   30.3313 H   0  0  0  0  0  0  0  0  0  0  0  0
   -0.7231   -4.5703   28.2992 H   0  0  0  0  0  0  0  0  0  0  0  0
    1.0039   -2.9312   27.5672 H   0  0  0  0  0  0  0  0  0  0  0  0
    3.0108   -1.4818   27.4903 H   0  0  0  0  0  0  0  0  0  0  0  0
    4.1057   -2.7829   27.0918 H   0  0  0  0  0  0  0  0  0  0  0  0
    4.8124   -0.3821   26.7032 H   0  0  0  0  0  0  0  0  0  0  0  0
    4.9923   -0.1656   28.4297 H   0  0  0  0  0  0  0  0  0  0  0  0
    6.6150   -0.2106   25.9578 H   0  0  0  0  0  0  0  0  0  0  0  0
    9.3963   -1.3707   28.0937 H   0  0  0  0  0  0  0  0  0  0  0  0
    9.4284    0.3420   27.6698 H   0  0  0  0  0  0  0  0  0  0  0  0
   10.6301   -0.7598   26.9829 H   0  0  0  0  0  0  0  0  0  0  0  0
    9.8824   -2.5718   25.2941 H   0  0  0  0  0  0  0  0  0  0  0  0
    8.6310   -3.0986   26.4183 H   0  0  0  0  0  0  0  0  0  0  0  0
    8.1955   -2.6276   24.7655 H   0  0  0  0  0  0  0  0  0  0  0  0
   11.0159    1.0009   22.6759 H   0  0  0  0  0  0  0  0  0  0  0  0
    9.4416    3.0056   23.7608 H   0  0  0  0  0  0  0  0  0  0  0  0
    8.1058    1.8150   25.5717 H   0  0  0  0  0  0  0  0  0  0  0  0
  1  2  1  0
  2  3  2  0
  3  4  1  0
  4  5  2  0
  5  6  1  0
  6  7  2  0
  7  8  1  0
  8  9  2  0
  9 10  1  0
 10 11  1  0
 11 12  1  0
 12 13  1  0
 13 14  2  0
 13 15  1  0
 15 16  1  0
 16 17  1  0
 16 18  1  0
 16 19  1  0
 19 20  2  0
 20 21  1  0
 21 22  2  0
 22 23  1  0
 10  2  1  0
 23 19  1  0
  9  4  1  0
  1 24  1  0
  1 25  1  0
  1 26  1  0
  5 27  1  0
  6 28  1  0
  7 29  1  0
  8 30  1  0
 11 31  1  0
 11 32  1  0
 12 33  1  0
 12 34  1  0
 15 35  1  0
 17 36  1  0
 17 37  1  0
 17 38  1  0
 18 39  1  0
 18 40  1  0
 18 41  1  0
 21 42  1  0
 22 43  1  0
 23 44  1  0
M  END
>  <Energy>  (1482) 
22.554138776584171

>  <compound_id>  (1482) 
31687

>  <target_id>  (1482) 
1

>  <reference_id>  (1482) 
35

>  <inspiration_ids>  (1482) 
[55, 35]

>  <energy_score>  (1482) 
-1.5323892303156867

>  <distance_score>  (1482) 
15.021791776545541

>  <path>  (1482) 
/opt/xchem-fragalysis-2/maxwin/BulkDock/SCRATCH/511017/C31687-P35/C31687-P35.minimised.mol

>  <scratch_subdir>  (1482) 
/opt/xchem-fragalysis-2/maxwin/BulkDock/SCRATCH/511017/C31687-P35

>  <fragmenstein_runtime>  (1482) 
32.47814226150513

>  <fragmenstein_outcome>  (1482) 
too moved

>  <fragmenstein_mode>  (1482) 
expansion

>  <fragmenstein_error>  (1482) 


$$$$
C13078-P55
     RDKit          3D

 40 44  0  0  0  0  0  0  0  0999 V2000
    0.6959  -14.8082   19.2430 O   0  0  0  0  0  0  0  0  0  0  0  0
    1.3556  -15.3320   20.0733 C   0  0  0  0  0  0  0  0  0  0  0  0
    2.9454  -14.9646   20.0560 C   0  0  0  0  0  0  0  0  0  0  0  0
    3.3943  -13.5676   19.5539 N   0  0  0  0  0  0  0  0  0  0  0  0
    2.5688  -12.5117   19.2105 C   0  0  0  0  0  0  0  0  0  0  0  0
    3.2095  -11.4162   18.8565 N   0  0  0  0  0  0  0  0  0  0  0  0
    4.5321  -11.7375   18.9202 C   0  0  0  0  0  0  0  0  0  0  0  0
    5.6404  -10.9201   18.6073 C   0  0  0  0  0  0  0  0  0  0  0  0
    6.9265  -11.4446   18.7228 C   0  0  0  0  0  0  0  0  0  0  0  0
    7.0952  -12.7607   19.1524 C   0  0  0  0  0  0  0  0  0  0  0  0
    5.9972  -13.5927   19.4720 C   0  0  0  0  0  0  0  0  0  0  0  0
    4.7001  -13.0664   19.3485 C   0  0  0  0  0  0  0  0  0  0  0  0
    0.9538  -16.2764   21.3037 N   0  0  0  0  0  0  0  0  0  0  0  0
   -0.8369  -16.6664   21.8868 C   0  0  0  0  0  0  0  0  0  0  0  0
   -1.6836  -18.0437   21.0857 C   0  0  0  0  0  0  0  0  0  0  0  0
   -0.2801  -18.4957   20.8718 C   0  0  0  0  0  0  0  0  0  0  0  0
   -0.3521  -16.9169   21.7223 C   0  0  0  0  0  0  0  0  0  0  0  0
   -0.2859  -18.1358   23.3539 C   0  0  0  0  0  0  0  0  0  0  0  0
   -1.3936  -18.4976   23.9936 N   0  0  0  0  0  0  0  0  0  0  0  0
   -1.0070  -19.4618   24.8918 C   0  0  0  0  0  0  0  0  0  0  0  0
    0.3454  -19.6871   24.7930 C   0  0  0  0  0  0  0  0  0  0  0  0
    0.8018  -18.8242   23.8194 N   0  0  0  0  0  0  0  0  0  0  0  0
   -1.5621  -16.8857   20.2739 C   0  0  0  0  0  0  0  0  0  0  0  0
    3.4385  -15.6575   19.3661 H   0  0  0  0  0  0  0  0  0  0  0  0
    3.3728  -15.0588   21.0556 H   0  0  0  0  0  0  0  0  0  0  0  0
    1.4905  -12.5930   19.2437 H   0  0  0  0  0  0  0  0  0  0  0  0
    5.4695   -9.9045   18.2720 H   0  0  0  0  0  0  0  0  0  0  0  0
    7.7911  -10.8367   18.4734 H   0  0  0  0  0  0  0  0  0  0  0  0
    8.1021  -13.1653   19.2394 H   0  0  0  0  0  0  0  0  0  0  0  0
    6.1591  -14.6144   19.7992 H   0  0  0  0  0  0  0  0  0  0  0  0
   -1.2332  -16.3036   23.0851 H   0  0  0  0  0  0  0  0  0  0  0  0
   -1.4049  -15.5044   21.6250 H   0  0  0  0  0  0  0  0  0  0  0  0
   -2.4582  -18.2915   21.8093 H   0  0  0  0  0  0  0  0  0  0  0  0
    0.1466  -18.4915   19.8622 H   0  0  0  0  0  0  0  0  0  0  0  0
    0.0216  -19.4128   21.3787 H   0  0  0  0  0  0  0  0  0  0  0  0
   -1.7197  -19.9382   25.5522 H   0  0  0  0  0  0  0  0  0  0  0  0
    1.0132  -20.3581   25.3135 H   0  0  0  0  0  0  0  0  0  0  0  0
    1.7486  -18.7375   23.4743 H   0  0  0  0  0  0  0  0  0  0  0  0
   -2.4675  -16.2597   20.2513 H   0  0  0  0  0  0  0  0  0  0  0  0
   -1.1478  -16.9664   19.2617 H   0  0  0  0  0  0  0  0  0  0  0  0
  1  2  2  0
  2  3  1  0
  3  4  1  0
  4  5  1  0
  5  6  2  0
  6  7  1  0
  7  8  2  0
  8  9  1  0
  9 10  2  0
 10 11  1  0
 11 12  2  0
  2 13  1  0
 13 14  1  0
 14 15  1  0
 15 16  1  0
 16 17  1  0
 17 18  1  0
 18 19  2  0
 19 20  1  0
 20 21  2  0
 21 22  1  0
 17 23  1  0
 12  4  1  0
 17 13  1  0
 22 18  1  0
 12  7  1  0
 23 15  1  0
  3 24  1  0
  3 25  1  0
  5 26  1  0
  8 27  1  0
  9 28  1  0
 10 29  1  0
 11 30  1  0
 14 31  1  0
 14 32  1  0
 15 33  1  0
 16 34  1  0
 16 35  1  0
 20 36  1  0
 21 37  1  0
 22 38  1  0
 23 39  1  0
 23 40  1  0
M  END
>  <Energy>  (1483) 
798.73720640022134

>  <compound_id>  (1483) 
13078

>  <target_id>  (1483) 
1

>  <reference_id>  (1483) 
55

>  <inspiration_ids>  (1483) 
[55, 35]

>  <energy_score>  (1483) 
704.6403743249297

>  <distance_score>  (1483) 
15.757617402197981

>  <path>  (1483) 
/opt/xchem-fragalysis-2/maxwin/BulkDock/SCRATCH/511017/C13078-P55/C13078-P55.minimised.mol

>  <scratch_subdir>  (1483) 
/opt/xchem-fragalysis-2/maxwin/BulkDock/SCRATCH/511017/C13078-P55

>  <fragmenstein_runtime>  (1483) 
31.498706817626953

>  <fragmenstein_outcome>  (1483) 
too moved

>  <fragmenstein_mode>  (1483) 
expansion

>  <fragmenstein_error>  (1483) 


$$$$
C13078-P35
     RDKit          3D

 40 44  0  0  0  0  0  0  0  0999 V2000
    0.7064  -13.4540   26.4221 O   0  0  0  0  0  0  0  0  0  0  0  0
    1.7990  -13.9287   26.3759 C   0  0  0  0  0  0  0  0  0  0  0  0
    2.8799  -13.0432   24.6752 C   0  0  0  0  0  0  0  0  0  0  0  0
    3.0342  -11.9584   22.9787 N   0  0  0  0  0  0  0  0  0  0  0  0
    4.1957  -10.9842   22.3864 C   0  0  0  0  0  0  0  0  0  0  0  0
    4.6016  -11.2493   21.1712 N   0  0  0  0  0  0  0  0  0  0  0  0
    3.4672  -10.9231   20.6247 C   0  0  0  0  0  0  0  0  0  0  0  0
    3.2961  -10.3499   19.3485 C   0  0  0  0  0  0  0  0  0  0  0  0
    2.0491   -9.8836   18.9771 C   0  0  0  0  0  0  0  0  0  0  0  0
    0.9808  -10.0605   19.8435 C   0  0  0  0  0  0  0  0  0  0  0  0
    1.1220  -10.7027   21.0940 C   0  0  0  0  0  0  0  0  0  0  0  0
    2.4253  -11.1268   21.5872 C   0  0  0  0  0  0  0  0  0  0  0  0
    2.1810  -15.5044   27.6130 N   0  0  0  0  0  0  0  0  0  0  0  0
    1.2960  -16.3200   28.4944 C   0  0  0  0  0  0  0  0  0  0  0  0
   -0.0033  -17.4921   27.9908 C   0  0  0  0  0  0  0  0  0  0  0  0
    0.7462  -18.2496   28.9758 C   0  0  0  0  0  0  0  0  0  0  0  0
    0.9967  -16.3727   29.1434 C   0  0  0  0  0  0  0  0  0  0  0  0
    1.1105  -16.5695   30.9783 C   0  0  0  0  0  0  0  0  0  0  0  0
    1.8920  -17.4954   31.5005 N   0  0  0  0  0  0  0  0  0  0  0  0
    1.1856  -18.0241   32.5609 C   0  0  0  0  0  0  0  0  0  0  0  0
   -0.0210  -17.3862   32.7124 C   0  0  0  0  0  0  0  0  0  0  0  0
   -0.0258  -16.4004   31.7603 N   0  0  0  0  0  0  0  0  0  0  0  0
   -0.8019  -16.6734   28.9105 C   0  0  0  0  0  0  0  0  0  0  0  0
    1.9277  -12.6128   24.4139 H   0  0  0  0  0  0  0  0  0  0  0  0
    3.3523  -13.8150   24.0520 H   0  0  0  0  0  0  0  0  0  0  0  0
    4.1909   -9.9707   22.7680 H   0  0  0  0  0  0  0  0  0  0  0  0
    4.1577  -10.2300   18.7013 H   0  0  0  0  0  0  0  0  0  0  0  0
    1.9050   -9.4070   18.0128 H   0  0  0  0  0  0  0  0  0  0  0  0
   -0.0095   -9.7234   19.5429 H   0  0  0  0  0  0  0  0  0  0  0  0
    0.2329  -10.8546   21.7035 H   0  0  0  0  0  0  0  0  0  0  0  0
    1.5191  -16.8552   27.4093 H   0  0  0  0  0  0  0  0  0  0  0  0
    2.3983  -17.1871   28.6088 H   0  0  0  0  0  0  0  0  0  0  0  0
   -0.2130  -17.8899   27.0048 H   0  0  0  0  0  0  0  0  0  0  0  0
    1.5578  -18.8836   28.6025 H   0  0  0  0  0  0  0  0  0  0  0  0
    0.1644  -18.7853   29.7317 H   0  0  0  0  0  0  0  0  0  0  0  0
    1.5817  -18.8455   33.1451 H   0  0  0  0  0  0  0  0  0  0  0  0
   -0.8440  -17.5309   33.3989 H   0  0  0  0  0  0  0  0  0  0  0  0
   -0.8128  -15.8044   31.5369 H   0  0  0  0  0  0  0  0  0  0  0  0
   -1.4401  -15.8726   28.5299 H   0  0  0  0  0  0  0  0  0  0  0  0
   -1.3587  -17.2191   29.6783 H   0  0  0  0  0  0  0  0  0  0  0  0
  1  2  2  0
  2  3  1  0
  3  4  1  0
  4  5  1  0
  5  6  2  0
  6  7  1  0
  7  8  2  0
  8  9  1  0
  9 10  2  0
 10 11  1  0
 11 12  2  0
  2 13  1  0
 13 14  1  0
 14 15  1  0
 15 16  1  0
 16 17  1  0
 17 18  1  0
 18 19  2  0
 19 20  1  0
 20 21  2  0
 21 22  1  0
 17 23  1  0
 12  4  1  0
 17 13  1  0
 22 18  1  0
 12  7  1  0
 23 15  1  0
  3 24  1  0
  3 25  1  0
  5 26  1  0
  8 27  1  0
  9 28  1  0
 10 29  1  0
 11 30  1  0
 14 31  1  0
 14 32  1  0
 15 33  1  0
 16 34  1  0
 16 35  1  0
 20 36  1  0
 21 37  1  0
 22 38  1  0
 23 39  1  0
 23 40  1  0
M  END
>  <Energy>  (1484) 
1496.536639941625

>  <compound_id>  (1484) 
13078

>  <target_id>  (1484) 
1

>  <reference_id>  (1484) 
35

>  <inspiration_ids>  (1484) 
[55, 35]

>  <energy_score>  (1484) 
1402.4398078663385

>  <distance_score>  (1484) 
14.64035097089752

>  <path>  (1484) 
/opt/xchem-fragalysis-2/maxwin/BulkDock/SCRATCH/511017/C13078-P35/C13078-P35.minimised.mol

>  <scratch_subdir>  (1484) 
/opt/xchem-fragalysis-2/maxwin/BulkDock/SCRATCH/511017/C13078-P35

>  <fragmenstein_runtime>  (1484) 
23.10679841041565

>  <fragmenstein_outcome>  (1484) 
too moved

>  <fragmenstein_mode>  (1484) 
expansion

>  <fragmenstein_error>  (1484) 


$$$$
C13079-P55
     RDKit          3D

 39 42  0  0  0  0  0  0  0  0999 V2000
    5.5860  -14.9551   25.6698 O   0  0  0  0  0  0  0  0  0  0  0  0
    5.6798  -14.3591   26.7128 C   0  0  0  0  0  0  0  0  0  0  0  0
    6.6678  -13.0553   26.8324 C   0  0  0  0  0  0  0  0  0  0  0  0
    7.4734  -12.5225   25.6614 N   0  0  0  0  0  0  0  0  0  0  0  0
    8.1539  -13.3096   24.7586 C   0  0  0  0  0  0  0  0  0  0  0  0
    9.0214  -12.6435   24.0267 N   0  0  0  0  0  0  0  0  0  0  0  0
    8.9657  -11.3573   24.4740 C   0  0  0  0  0  0  0  0  0  0  0  0
    9.7725  -10.2655   24.0931 C   0  0  0  0  0  0  0  0  0  0  0  0
    9.5382   -9.0138   24.6628 C   0  0  0  0  0  0  0  0  0  0  0  0
    8.5163   -8.8644   25.5968 C   0  0  0  0  0  0  0  0  0  0  0  0
    7.7351   -9.9583   26.0284 C   0  0  0  0  0  0  0  0  0  0  0  0
    7.9760  -11.2201   25.4584 C   0  0  0  0  0  0  0  0  0  0  0  0
    5.0518  -14.6247   28.0261 N   0  0  0  0  0  0  0  0  0  0  0  0
    5.9448  -15.5174   28.8627 C   0  0  0  0  0  0  0  0  0  0  0  0
    5.8371  -17.0011   28.4889 C   0  0  0  0  0  0  0  0  0  0  0  0
    4.4029  -17.1241   28.1130 C   0  0  0  0  0  0  0  0  0  0  0  0
    3.9507  -15.7197   28.4660 C   0  0  0  0  0  0  0  0  0  0  0  0
    2.4514  -15.6040   28.1504 C   0  0  0  0  0  0  0  0  0  0  0  0
    1.4956  -15.9781   29.0038 N   0  0  0  0  0  0  0  0  0  0  0  0
    0.3110  -15.9728   28.3134 C   0  0  0  0  0  0  0  0  0  0  0  0
    0.5333  -15.5868   27.0181 C   0  0  0  0  0  0  0  0  0  0  0  0
    1.8877  -15.3498   26.9250 N   0  0  0  0  0  0  0  0  0  0  0  0
    6.0919  -12.2040   27.2011 H   0  0  0  0  0  0  0  0  0  0  0  0
    7.4391  -13.2947   27.5737 H   0  0  0  0  0  0  0  0  0  0  0  0
    7.9820  -14.3770   24.6897 H   0  0  0  0  0  0  0  0  0  0  0  0
   10.5537  -10.4112   23.3552 H   0  0  0  0  0  0  0  0  0  0  0  0
   10.1418   -8.1601   24.3689 H   0  0  0  0  0  0  0  0  0  0  0  0
    8.3306   -7.8822   26.0269 H   0  0  0  0  0  0  0  0  0  0  0  0
    6.9767   -9.8169   26.7899 H   0  0  0  0  0  0  0  0  0  0  0  0
    5.7801  -15.3257   29.9347 H   0  0  0  0  0  0  0  0  0  0  0  0
    6.9840  -15.2071   28.6941 H   0  0  0  0  0  0  0  0  0  0  0  0
    6.1226  -17.6428   29.3278 H   0  0  0  0  0  0  0  0  0  0  0  0
    6.4843  -17.2431   27.6387 H   0  0  0  0  0  0  0  0  0  0  0  0
    3.8794  -17.9016   28.6786 H   0  0  0  0  0  0  0  0  0  0  0  0
    4.2894  -17.3366   27.0439 H   0  0  0  0  0  0  0  0  0  0  0  0
    3.8816  -15.6133   29.5675 H   0  0  0  0  0  0  0  0  0  0  0  0
   -0.6242  -16.2436   28.7852 H   0  0  0  0  0  0  0  0  0  0  0  0
   -0.1199  -15.4487   26.1681 H   0  0  0  0  0  0  0  0  0  0  0  0
    2.3883  -15.0585   26.0935 H   0  0  0  0  0  0  0  0  0  0  0  0
  1  2  2  0
  2  3  1  0
  3  4  1  0
  4  5  1  0
  5  6  2  0
  6  7  1  0
  7  8  2  0
  8  9  1  0
  9 10  2  0
 10 11  1  0
 11 12  2  0
  2 13  1  0
 13 14  1  0
 14 15  1  0
 15 16  1  0
 16 17  1  0
 17 18  1  0
 18 19  2  0
 19 20  1  0
 20 21  2  0
 21 22  1  0
 12  4  1  0
 17 13  1  0
 22 18  1  0
 12  7  1  0
  3 23  1  0
  3 24  1  0
  5 25  1  0
  8 26  1  0
  9 27  1  0
 10 28  1  0
 11 29  1  0
 14 30  1  0
 14 31  1  0
 15 32  1  0
 15 33  1  0
 16 34  1  0
 16 35  1  0
 17 36  1  0
 20 37  1  0
 21 38  1  0
 22 39  1  0
M  END
>  <Energy>  (1485) 
109.17654751749647

>  <compound_id>  (1485) 
13079

>  <target_id>  (1485) 
1

>  <reference_id>  (1485) 
55

>  <inspiration_ids>  (1485) 
[55, 35]

>  <energy_score>  (1485) 
58.71888063450058

>  <distance_score>  (1485) 
16.100973686869505

>  <path>  (1485) 
/opt/xchem-fragalysis-2/maxwin/BulkDock/SCRATCH/511017/C13079-P55/C13079-P55.minimised.mol

>  <scratch_subdir>  (1485) 
/opt/xchem-fragalysis-2/maxwin/BulkDock/SCRATCH/511017/C13079-P55

>  <fragmenstein_runtime>  (1485) 
26.305473804473877

>  <fragmenstein_outcome>  (1485) 
too moved

>  <fragmenstein_mode>  (1485) 
expansion

>  <fragmenstein_error>  (1485) 


$$$$
C13079-P35
     RDKit          3D

 39 42  0  0  0  0  0  0  0  0999 V2000
    6.8415  -18.1767   22.6995 O   0  0  0  0  0  0  0  0  0  0  0  0
    6.4371  -17.0370   22.7692 C   0  0  0  0  0  0  0  0  0  0  0  0
    7.0545  -16.0387   21.6439 C   0  0  0  0  0  0  0  0  0  0  0  0
    8.0920  -14.9503   21.7595 N   0  0  0  0  0  0  0  0  0  0  0  0
    9.0185  -14.7521   22.7482 C   0  0  0  0  0  0  0  0  0  0  0  0
    9.7855  -13.6991   22.5378 N   0  0  0  0  0  0  0  0  0  0  0  0
    9.4151  -13.2043   21.3158 C   0  0  0  0  0  0  0  0  0  0  0  0
    9.9767  -12.1429   20.5766 C   0  0  0  0  0  0  0  0  0  0  0  0
    9.4331  -11.8235   19.3290 C   0  0  0  0  0  0  0  0  0  0  0  0
    8.3259  -12.5175   18.8460 C   0  0  0  0  0  0  0  0  0  0  0  0
    7.7595  -13.5852   19.5682 C   0  0  0  0  0  0  0  0  0  0  0  0
    8.3365  -13.9338   20.8047 C   0  0  0  0  0  0  0  0  0  0  0  0
    5.4132  -16.4449   23.6375 N   0  0  0  0  0  0  0  0  0  0  0  0
    6.0428  -15.9271   24.9092 C   0  0  0  0  0  0  0  0  0  0  0  0
    6.3327  -17.0625   25.9040 C   0  0  0  0  0  0  0  0  0  0  0  0
    5.1784  -17.9817   25.6895 C   0  0  0  0  0  0  0  0  0  0  0  0
    4.3980  -17.1320   24.7086 C   0  0  0  0  0  0  0  0  0  0  0  0
    3.0872  -17.8677   24.3054 C   0  0  0  0  0  0  0  0  0  0  0  0
    2.7443  -19.1079   24.6505 N   0  0  0  0  0  0  0  0  0  0  0  0
    1.3726  -19.1967   24.5692 C   0  0  0  0  0  0  0  0  0  0  0  0
    0.8456  -17.9970   24.1718 C   0  0  0  0  0  0  0  0  0  0  0  0
    1.9315  -17.1796   23.9630 N   0  0  0  0  0  0  0  0  0  0  0  0
    7.4913  -16.6977   20.8793 H   0  0  0  0  0  0  0  0  0  0  0  0
    6.2140  -15.5556   21.1665 H   0  0  0  0  0  0  0  0  0  0  0  0
    9.1010  -15.4122   23.6014 H   0  0  0  0  0  0  0  0  0  0  0  0
   10.8343  -11.6096   20.9709 H   0  0  0  0  0  0  0  0  0  0  0  0
    9.8764  -11.0393   18.7287 H   0  0  0  0  0  0  0  0  0  0  0  0
    7.9065  -12.2480   17.8770 H   0  0  0  0  0  0  0  0  0  0  0  0
    6.9228  -14.1425   19.1575 H   0  0  0  0  0  0  0  0  0  0  0  0
    6.9949  -15.4540   24.6478 H   0  0  0  0  0  0  0  0  0  0  0  0
    5.4469  -15.1172   25.3547 H   0  0  0  0  0  0  0  0  0  0  0  0
    6.3972  -16.6822   26.9280 H   0  0  0  0  0  0  0  0  0  0  0  0
    7.2780  -17.5636   25.6682 H   0  0  0  0  0  0  0  0  0  0  0  0
    5.5029  -18.9306   25.2482 H   0  0  0  0  0  0  0  0  0  0  0  0
    4.6286  -18.1943   26.6118 H   0  0  0  0  0  0  0  0  0  0  0  0
    3.9277  -16.2866   25.2510 H   0  0  0  0  0  0  0  0  0  0  0  0
    0.8533  -20.1147   24.8107 H   0  0  0  0  0  0  0  0  0  0  0  0
   -0.1660  -17.6579   24.0038 H   0  0  0  0  0  0  0  0  0  0  0  0
    1.8946  -16.2017   23.7050 H   0  0  0  0  0  0  0  0  0  0  0  0
  1  2  2  0
  2  3  1  0
  3  4  1  0
  4  5  1  0
  5  6  2  0
  6  7  1  0
  7  8  2  0
  8  9  1  0
  9 10  2  0
 10 11  1  0
 11 12  2  0
  2 13  1  0
 13 14  1  0
 14 15  1  0
 15 16  1  0
 16 17  1  0
 17 18  1  0
 18 19  2  0
 19 20  1  0
 20 21  2  0
 21 22  1  0
 12  4  1  0
 17 13  1  0
 22 18  1  0
 12  7  1  0
  3 23  1  0
  3 24  1  0
  5 25  1  0
  8 26  1  0
  9 27  1  0
 10 28  1  0
 11 29  1  0
 14 30  1  0
 14 31  1  0
 15 32  1  0
 15 33  1  0
 16 34  1  0
 16 35  1  0
 17 36  1  0
 20 37  1  0
 21 38  1  0
 22 39  1  0
M  END
>  <Energy>  (1486) 
124.91378773454989

>  <compound_id>  (1486) 
13079

>  <target_id>  (1486) 
1

>  <reference_id>  (1486) 
35

>  <inspiration_ids>  (1486) 
[55, 35]

>  <energy_score>  (1486) 
74.4561208515488

>  <distance_score>  (1486) 
16.375574340091916

>  <path>  (1486) 
/opt/xchem-fragalysis-2/maxwin/BulkDock/SCRATCH/511017/C13079-P35/C13079-P35.minimised.mol

>  <scratch_subdir>  (1486) 
/opt/xchem-fragalysis-2/maxwin/BulkDock/SCRATCH/511017/C13079-P35

>  <fragmenstein_runtime>  (1486) 
24.124143600463867

>  <fragmenstein_outcome>  (1486) 
too moved

>  <fragmenstein_mode>  (1486) 
expansion

>  <fragmenstein_error>  (1486) 


$$$$
C28139-P69
     RDKit          3D

 34 36  0  0  0  0  0  0  0  0999 V2000
   -6.6927   -3.8073   22.1364 O   0  0  0  0  0  0  0  0  0  0  0  0
   -6.1674   -4.8525   21.7201 C   0  0  0  0  0  0  0  0  0  0  0  0
   -6.6164   -6.0216   22.2345 O   0  0  0  0  0  0  0  0  0  0  0  0
   -4.9642   -4.7967   20.7470 C   0  0  0  0  0  0  0  0  0  0  0  0
   -4.2672   -5.0654   19.1020 N   0  0  0  0  0  0  0  0  0  0  0  0
   -4.8759   -5.1112   17.3648 C   0  0  0  0  0  0  0  0  0  0  0  0
   -5.8413   -4.4873   15.8197 C   0  0  0  0  0  0  0  0  0  0  0  0
   -7.1081   -5.4326   15.9911 C   0  0  0  0  0  0  0  0  0  0  0  0
   -8.2914   -5.4256   15.1412 C   0  0  0  0  0  0  0  0  0  0  0  0
   -8.4210   -4.3562   14.2712 C   0  0  0  0  0  0  0  0  0  0  0  0
   -7.4787   -3.1925   14.1871 C   0  0  0  0  0  0  0  0  0  0  0  0
   -7.9656   -1.7041   13.0337 N   0  0  0  0  0  0  0  0  0  0  0  0
   -7.0596   -0.8140   12.5319 C   0  0  0  0  0  0  0  0  0  0  0  0
   -7.3838   -0.1714   11.0955 C   0  0  0  0  0  0  0  0  0  0  0  0
   -7.8309    1.0671   10.8310 F   0  0  0  0  0  0  0  0  0  0  0  0
   -6.6216   -0.5009   10.0111 F   0  0  0  0  0  0  0  0  0  0  0  0
   -6.0271   -1.1503   14.3642 S   0  0  0  0  0  0  0  0  0  0  0  0
   -6.2867   -3.1801   14.8832 C   0  0  0  0  0  0  0  0  0  0  0  0
   -4.2466   -4.8989   22.0428 C   0  0  0  0  0  0  0  0  0  0  0  0
   -4.1997   -5.8220   23.1017 C   0  0  0  0  0  0  0  0  0  0  0  0
   -3.0619   -5.4548   23.7507 C   0  0  0  0  0  0  0  0  0  0  0  0
   -3.2047   -4.1575   24.1154 N   0  0  0  0  0  0  0  0  0  0  0  0
   -4.1959   -3.4303   23.0160 S   0  0  0  0  0  0  0  0  0  0  0  0
   -7.1554   -5.7749   23.0147 H   0  0  0  0  0  0  0  0  0  0  0  0
   -5.0008   -3.7749   20.4935 H   0  0  0  0  0  0  0  0  0  0  0  0
   -3.7685   -4.1872   18.9683 H   0  0  0  0  0  0  0  0  0  0  0  0
   -3.9665   -5.0004   16.8682 H   0  0  0  0  0  0  0  0  0  0  0  0
   -5.1422   -6.1692   17.4482 H   0  0  0  0  0  0  0  0  0  0  0  0
   -7.0634   -6.2462   16.7227 H   0  0  0  0  0  0  0  0  0  0  0  0
   -9.0505   -6.1970   15.2329 H   0  0  0  0  0  0  0  0  0  0  0  0
   -9.3213   -4.3318   13.6558 H   0  0  0  0  0  0  0  0  0  0  0  0
   -8.3636   -0.5694   10.8625 H   0  0  0  0  0  0  0  0  0  0  0  0
   -4.6965   -6.7518   23.3046 H   0  0  0  0  0  0  0  0  0  0  0  0
   -2.3211   -6.0820   24.2537 H   0  0  0  0  0  0  0  0  0  0  0  0
  1  2  2  0
  2  3  1  0
  2  4  1  0
  4  5  1  0
  5  6  1  0
  6  7  1  0
  7  8  2  0
  8  9  1  0
  9 10  2  0
 10 11  1  0
 11 12  1  0
 12 13  2  0
 13 14  1  0
 14 15  1  0
 14 16  1  0
 13 17  1  0
 17 18  1  0
  4 19  1  0
 19 20  2  0
 20 21  1  0
 21 22  2  0
 22 23  1  0
 18  7  1  0
 23 19  1  0
 18 11  2  0
  3 24  1  0
  4 25  1  0
  5 26  1  0
  6 27  1  0
  6 28  1  0
  8 29  1  0
  9 30  1  0
 10 31  1  0
 14 32  1  0
 20 33  1  0
 21 34  1  0
M  END
>  <Energy>  (1487) 
724.89212846503619

>  <compound_id>  (1487) 
28139

>  <target_id>  (1487) 
1

>  <reference_id>  (1487) 
69

>  <inspiration_ids>  (1487) 
[69, 187]

>  <energy_score>  (1487) 
539.2918544199583

>  <distance_score>  (1487) 
9.084876522035861

>  <path>  (1487) 
/opt/xchem-fragalysis-2/maxwin/BulkDock/SCRATCH/511017/C28139-P69/C28139-P69.minimised.mol

>  <scratch_subdir>  (1487) 
/opt/xchem-fragalysis-2/maxwin/BulkDock/SCRATCH/511017/C28139-P69

>  <fragmenstein_runtime>  (1487) 
13.79676365852356

>  <fragmenstein_outcome>  (1487) 
too moved

>  <fragmenstein_mode>  (1487) 
expansion

>  <fragmenstein_error>  (1487) 


$$$$
C28139-P187
     RDKit          3D

 34 36  0  0  0  0  0  0  0  0999 V2000
   -7.3058   -6.7909   18.2673 O   0  0  0  0  0  0  0  0  0  0  0  0
   -6.6500   -6.1922   17.4282 C   0  0  0  0  0  0  0  0  0  0  0  0
   -7.1444   -6.4221   16.2225 O   0  0  0  0  0  0  0  0  0  0  0  0
   -5.1674   -4.9561   17.6708 C   0  0  0  0  0  0  0  0  0  0  0  0
   -4.7195   -4.1553   16.4306 N   0  0  0  0  0  0  0  0  0  0  0  0
   -5.3508   -4.4734   14.7761 C   0  0  0  0  0  0  0  0  0  0  0  0
   -5.6943   -3.7967   13.0324 C   0  0  0  0  0  0  0  0  0  0  0  0
   -6.0131   -2.0917   13.9381 C   0  0  0  0  0  0  0  0  0  0  0  0
   -6.4041   -0.5938   12.8249 C   0  0  0  0  0  0  0  0  0  0  0  0
   -6.8614   -0.6300   11.1173 C   0  0  0  0  0  0  0  0  0  0  0  0
   -6.8319   -2.2351   10.0216 C   0  0  0  0  0  0  0  0  0  0  0  0
   -7.5868   -2.2117    8.6678 N   0  0  0  0  0  0  0  0  0  0  0  0
   -7.9309   -3.4474    8.3009 C   0  0  0  0  0  0  0  0  0  0  0  0
   -8.5936   -3.7552    6.9845 C   0  0  0  0  0  0  0  0  0  0  0  0
   -9.0399   -5.0348    6.9290 F   0  0  0  0  0  0  0  0  0  0  0  0
   -9.6731   -2.9622    6.7496 F   0  0  0  0  0  0  0  0  0  0  0  0
   -7.2785   -4.8867    9.2624 S   0  0  0  0  0  0  0  0  0  0  0  0
   -6.5298   -4.0638   11.0345 C   0  0  0  0  0  0  0  0  0  0  0  0
   -5.1714   -4.5040   19.5396 C   0  0  0  0  0  0  0  0  0  0  0  0
   -4.4337   -4.8373   20.6765 C   0  0  0  0  0  0  0  0  0  0  0  0
   -4.7761   -4.6350   22.0185 C   0  0  0  0  0  0  0  0  0  0  0  0
   -5.9359   -4.0858   22.1036 N   0  0  0  0  0  0  0  0  0  0  0  0
   -6.4324   -4.1816   20.5871 S   0  0  0  0  0  0  0  0  0  0  0  0
   -7.8910   -7.0295   16.4188 H   0  0  0  0  0  0  0  0  0  0  0  0
   -4.2626   -5.5852   17.6408 H   0  0  0  0  0  0  0  0  0  0  0  0
   -3.7695   -3.8305   16.3593 H   0  0  0  0  0  0  0  0  0  0  0  0
   -5.0898   -3.4924   14.8396 H   0  0  0  0  0  0  0  0  0  0  0  0
   -4.4380   -4.8317   14.5015 H   0  0  0  0  0  0  0  0  0  0  0  0
   -5.9312   -1.6836   14.9161 H   0  0  0  0  0  0  0  0  0  0  0  0
   -6.5323    0.3665   13.2987 H   0  0  0  0  0  0  0  0  0  0  0  0
   -7.2589    0.2131   10.5515 H   0  0  0  0  0  0  0  0  0  0  0  0
   -7.8826   -3.6082    6.1663 H   0  0  0  0  0  0  0  0  0  0  0  0
   -3.5000   -5.2540   20.5343 H   0  0  0  0  0  0  0  0  0  0  0  0
   -4.1866   -4.8683   22.8823 H   0  0  0  0  0  0  0  0  0  0  0  0
  1  2  2  0
  2  3  1  0
  2  4  1  0
  4  5  1  0
  5  6  1  0
  6  7  1  0
  7  8  2  0
  8  9  1  0
  9 10  2  0
 10 11  1  0
 11 12  1  0
 12 13  2  0
 13 14  1  0
 14 15  1  0
 14 16  1  0
 13 17  1  0
 17 18  1  0
  4 19  1  0
 19 20  2  0
 20 21  1  0
 21 22  2  0
 22 23  1  0
 18  7  1  0
 23 19  1  0
 18 11  2  0
  3 24  1  0
  4 25  1  0
  5 26  1  0
  6 27  1  0
  6 28  1  0
  8 29  1  0
  9 30  1  0
 10 31  1  0
 14 32  1  0
 20 33  1  0
 21 34  1  0
M  END
>  <Energy>  (1488) 
1237.1575894482021

>  <compound_id>  (1488) 
28139

>  <target_id>  (1488) 
1

>  <reference_id>  (1488) 
187

>  <inspiration_ids>  (1488) 
[69, 187]

>  <energy_score>  (1488) 
1051.557315403155

>  <distance_score>  (1488) 
9.453699009837853

>  <path>  (1488) 
/opt/xchem-fragalysis-2/maxwin/BulkDock/SCRATCH/511017/C28139-P187/C28139-P187.minimised.mol

>  <scratch_subdir>  (1488) 
/opt/xchem-fragalysis-2/maxwin/BulkDock/SCRATCH/511017/C28139-P187

>  <fragmenstein_runtime>  (1488) 
19.335877180099487

>  <fragmenstein_outcome>  (1488) 
too moved

>  <fragmenstein_mode>  (1488) 
expansion

>  <fragmenstein_error>  (1488) 


$$$$
C28140-P69
     RDKit          3D

 30 32  0  0  0  0  0  0  0  0999 V2000
   -3.4639   -2.0888   21.6799 O   0  0  0  0  0  0  0  0  0  0  0  0
   -3.5667   -2.8616   22.5742 C   0  0  0  0  0  0  0  0  0  0  0  0
   -2.8340   -2.4006   23.6898 C   0  0  0  0  0  0  0  0  0  0  0  0
   -0.9253   -2.5455   23.9235 C   0  0  0  0  0  0  0  0  0  0  0  0
   -0.3491   -2.2769   26.1190 C   0  0  0  0  0  0  0  0  0  0  0  0
   -0.4241   -0.5507   26.9241 C   0  0  0  0  0  0  0  0  0  0  0  0
   -1.6247   -1.0869   27.1241 N   0  0  0  0  0  0  0  0  0  0  0  0
    0.2080   -2.1297   26.3572 S   0  0  0  0  0  0  0  0  0  0  0  0
   -4.3839   -4.0997   22.7071 N   0  0  0  0  0  0  0  0  0  0  0  0
   -5.3690   -4.6786   21.8323 C   0  0  0  0  0  0  0  0  0  0  0  0
   -6.6765   -4.3342   22.3171 C   0  0  0  0  0  0  0  0  0  0  0  0
   -7.8523   -5.0623   22.1125 C   0  0  0  0  0  0  0  0  0  0  0  0
   -7.8096   -6.2421   21.3936 C   0  0  0  0  0  0  0  0  0  0  0  0
   -6.5896   -6.6602   20.8315 C   0  0  0  0  0  0  0  0  0  0  0  0
   -6.5357   -7.7051   19.9084 N   0  0  0  0  0  0  0  0  0  0  0  0
   -5.3240   -7.8111   19.4237 C   0  0  0  0  0  0  0  0  0  0  0  0
   -4.8868   -8.7733   18.3667 C   0  0  0  0  0  0  0  0  0  0  0  0
   -3.8758   -9.5754   18.8051 F   0  0  0  0  0  0  0  0  0  0  0  0
   -4.4102   -8.1222   17.2707 F   0  0  0  0  0  0  0  0  0  0  0  0
   -4.2074   -6.7635   20.1479 S   0  0  0  0  0  0  0  0  0  0  0  0
   -5.3917   -5.9281   21.0899 C   0  0  0  0  0  0  0  0  0  0  0  0
   -2.6389   -1.4164   23.2741 H   0  0  0  0  0  0  0  0  0  0  0  0
   -3.4902   -2.2620   24.5484 H   0  0  0  0  0  0  0  0  0  0  0  0
   -1.2218   -3.1610   26.9385 H   0  0  0  0  0  0  0  0  0  0  0  0
   -0.1954    0.4732   26.6478 H   0  0  0  0  0  0  0  0  0  0  0  0
   -4.1603   -4.5525   23.5673 H   0  0  0  0  0  0  0  0  0  0  0  0
   -6.7705   -3.4509   22.9444 H   0  0  0  0  0  0  0  0  0  0  0  0
   -8.7933   -4.7062   22.5241 H   0  0  0  0  0  0  0  0  0  0  0  0
   -8.7169   -6.8021   21.1884 H   0  0  0  0  0  0  0  0  0  0  0  0
   -5.7141   -9.4137   18.0486 H   0  0  0  0  0  0  0  0  0  0  0  0
  1  2  2  0
  2  3  1  0
  3  4  1  0
  4  5  2  0
  5  6  1  0
  6  7  2  0
  7  8  1  0
  2  9  1  0
  9 10  1  0
 10 11  2  0
 11 12  1  0
 12 13  2  0
 13 14  1  0
 14 15  1  0
 15 16  2  0
 16 17  1  0
 17 18  1  0
 17 19  1  0
 16 20  1  0
 20 21  1  0
  8  4  1  0
 21 10  1  0
 21 14  2  0
  3 22  1  0
  3 23  1  0
  5 24  1  0
  6 25  1  0
  9 26  1  0
 11 27  1  0
 12 28  1  0
 13 29  1  0
 17 30  1  0
M  END
>  <Energy>  (1489) 
1335.6755736620071

>  <compound_id>  (1489) 
28140

>  <target_id>  (1489) 
1

>  <reference_id>  (1489) 
69

>  <inspiration_ids>  (1489) 
[69, 187]

>  <energy_score>  (1489) 
1198.1411243616171

>  <distance_score>  (1489) 
11.493045053849885

>  <path>  (1489) 
/opt/xchem-fragalysis-2/maxwin/BulkDock/SCRATCH/511017/C28140-P69/C28140-P69.minimised.mol

>  <scratch_subdir>  (1489) 
/opt/xchem-fragalysis-2/maxwin/BulkDock/SCRATCH/511017/C28140-P69

>  <fragmenstein_runtime>  (1489) 
13.26413369178772

>  <fragmenstein_outcome>  (1489) 
too moved

>  <fragmenstein_mode>  (1489) 
expansion

>  <fragmenstein_error>  (1489) 


$$$$
C28140-P187
     RDKit          3D

 30 32  0  0  0  0  0  0  0  0999 V2000
   -5.3060   -4.3580   13.7804 O   0  0  0  0  0  0  0  0  0  0  0  0
   -6.4205   -4.0085   14.1142 C   0  0  0  0  0  0  0  0  0  0  0  0
   -7.3059   -5.2553   14.3924 C   0  0  0  0  0  0  0  0  0  0  0  0
   -6.7518   -6.3433   15.3034 C   0  0  0  0  0  0  0  0  0  0  0  0
   -5.4804   -6.8798   15.4051 C   0  0  0  0  0  0  0  0  0  0  0  0
   -5.4569   -7.9374   16.3490 C   0  0  0  0  0  0  0  0  0  0  0  0
   -6.6012   -8.2090   16.9694 N   0  0  0  0  0  0  0  0  0  0  0  0
   -7.7553   -7.1482   16.4440 S   0  0  0  0  0  0  0  0  0  0  0  0
   -7.1056   -2.4629   14.1785 N   0  0  0  0  0  0  0  0  0  0  0  0
   -6.4304   -0.8548   13.6354 C   0  0  0  0  0  0  0  0  0  0  0  0
   -5.4766   -0.4546   14.3516 C   0  0  0  0  0  0  0  0  0  0  0  0
   -3.6178   -0.1063   13.6946 C   0  0  0  0  0  0  0  0  0  0  0  0
   -3.2692   -0.1265   12.3903 C   0  0  0  0  0  0  0  0  0  0  0  0
   -4.5175   -0.2510   11.4818 C   0  0  0  0  0  0  0  0  0  0  0  0
   -4.5245   -0.2373    9.8409 N   0  0  0  0  0  0  0  0  0  0  0  0
   -5.7251   -0.1706    9.2438 C   0  0  0  0  0  0  0  0  0  0  0  0
   -5.9116   -0.0820    7.7721 C   0  0  0  0  0  0  0  0  0  0  0  0
   -6.7841   -1.0062    7.2958 F   0  0  0  0  0  0  0  0  0  0  0  0
   -6.3760    1.1396    7.3856 F   0  0  0  0  0  0  0  0  0  0  0  0
   -7.1779    0.0954   10.2841 S   0  0  0  0  0  0  0  0  0  0  0  0
   -6.0918   -0.3150   12.0767 C   0  0  0  0  0  0  0  0  0  0  0  0
   -8.3785   -5.0542   14.4717 H   0  0  0  0  0  0  0  0  0  0  0  0
   -7.1610   -5.7126   13.4108 H   0  0  0  0  0  0  0  0  0  0  0  0
   -4.6357   -6.5654   14.8051 H   0  0  0  0  0  0  0  0  0  0  0  0
   -4.5968   -8.5479   16.5944 H   0  0  0  0  0  0  0  0  0  0  0  0
   -8.0869   -2.5301   14.4216 H   0  0  0  0  0  0  0  0  0  0  0  0
   -5.9030    0.2898   15.0577 H   0  0  0  0  0  0  0  0  0  0  0  0
   -3.2767    0.8413   14.3792 H   0  0  0  0  0  0  0  0  0  0  0  0
   -2.2161   -0.0414   12.1456 H   0  0  0  0  0  0  0  0  0  0  0  0
   -4.9442   -0.2244    7.2941 H   0  0  0  0  0  0  0  0  0  0  0  0
  1  2  2  0
  2  3  1  0
  3  4  1  0
  4  5  2  0
  5  6  1  0
  6  7  2  0
  7  8  1  0
  2  9  1  0
  9 10  1  0
 10 11  2  0
 11 12  1  0
 12 13  2  0
 13 14  1  0
 14 15  1  0
 15 16  2  0
 16 17  1  0
 17 18  1  0
 17 19  1  0
 16 20  1  0
 20 21  1  0
  8  4  1  0
 21 10  1  0
 21 14  2  0
  3 22  1  0
  3 23  1  0
  5 24  1  0
  6 25  1  0
  9 26  1  0
 11 27  1  0
 12 28  1  0
 13 29  1  0
 17 30  1  0
M  END
>  <Energy>  (1490) 
449.7335869336838

>  <compound_id>  (1490) 
28140

>  <target_id>  (1490) 
1

>  <reference_id>  (1490) 
187

>  <inspiration_ids>  (1490) 
[69, 187]

>  <energy_score>  (1490) 
312.1991376332761

>  <distance_score>  (1490) 
12.934842018170327

>  <path>  (1490) 
/opt/xchem-fragalysis-2/maxwin/BulkDock/SCRATCH/511017/C28140-P187/C28140-P187.minimised.mol

>  <scratch_subdir>  (1490) 
/opt/xchem-fragalysis-2/maxwin/BulkDock/SCRATCH/511017/C28140-P187

>  <fragmenstein_runtime>  (1490) 
12.405284404754639

>  <fragmenstein_outcome>  (1490) 
too moved

>  <fragmenstein_mode>  (1490) 
expansion

>  <fragmenstein_error>  (1490) 


$$$$
C28140-P69
     RDKit          3D

 30 32  0  0  0  0  0  0  0  0999 V2000
   -3.4639   -2.0888   21.6799 O   0  0  0  0  0  0  0  0  0  0  0  0
   -3.5667   -2.8616   22.5742 C   0  0  0  0  0  0  0  0  0  0  0  0
   -2.8340   -2.4006   23.6898 C   0  0  0  0  0  0  0  0  0  0  0  0
   -0.9253   -2.5455   23.9235 C   0  0  0  0  0  0  0  0  0  0  0  0
   -0.3491   -2.2769   26.1190 C   0  0  0  0  0  0  0  0  0  0  0  0
   -0.4241   -0.5507   26.9241 C   0  0  0  0  0  0  0  0  0  0  0  0
   -1.6247   -1.0869   27.1241 N   0  0  0  0  0  0  0  0  0  0  0  0
    0.2080   -2.1297   26.3572 S   0  0  0  0  0  0  0  0  0  0  0  0
   -4.3839   -4.0997   22.7071 N   0  0  0  0  0  0  0  0  0  0  0  0
   -5.3690   -4.6786   21.8323 C   0  0  0  0  0  0  0  0  0  0  0  0
   -6.6765   -4.3342   22.3171 C   0  0  0  0  0  0  0  0  0  0  0  0
   -7.8523   -5.0623   22.1125 C   0  0  0  0  0  0  0  0  0  0  0  0
   -7.8096   -6.2421   21.3936 C   0  0  0  0  0  0  0  0  0  0  0  0
   -6.5896   -6.6602   20.8315 C   0  0  0  0  0  0  0  0  0  0  0  0
   -6.5357   -7.7051   19.9084 N   0  0  0  0  0  0  0  0  0  0  0  0
   -5.3240   -7.8111   19.4237 C   0  0  0  0  0  0  0  0  0  0  0  0
   -4.8868   -8.7733   18.3667 C   0  0  0  0  0  0  0  0  0  0  0  0
   -3.8758   -9.5754   18.8051 F   0  0  0  0  0  0  0  0  0  0  0  0
   -4.4102   -8.1222   17.2707 F   0  0  0  0  0  0  0  0  0  0  0  0
   -4.2074   -6.7635   20.1479 S   0  0  0  0  0  0  0  0  0  0  0  0
   -5.3917   -5.9281   21.0899 C   0  0  0  0  0  0  0  0  0  0  0  0
   -2.6389   -1.4164   23.2741 H   0  0  0  0  0  0  0  0  0  0  0  0
   -3.4902   -2.2620   24.5484 H   0  0  0  0  0  0  0  0  0  0  0  0
   -1.2218   -3.1610   26.9385 H   0  0  0  0  0  0  0  0  0  0  0  0
   -0.1954    0.4732   26.6478 H   0  0  0  0  0  0  0  0  0  0  0  0
   -4.1603   -4.5525   23.5673 H   0  0  0  0  0  0  0  0  0  0  0  0
   -6.7705   -3.4509   22.9444 H   0  0  0  0  0  0  0  0  0  0  0  0
   -8.7933   -4.7062   22.5241 H   0  0  0  0  0  0  0  0  0  0  0  0
   -8.7169   -6.8021   21.1884 H   0  0  0  0  0  0  0  0  0  0  0  0
   -5.7141   -9.4137   18.0486 H   0  0  0  0  0  0  0  0  0  0  0  0
  1  2  2  0
  2  3  1  0
  3  4  1  0
  4  5  2  0
  5  6  1  0
  6  7  2  0
  7  8  1  0
  2  9  1  0
  9 10  1  0
 10 11  2  0
 11 12  1  0
 12 13  2  0
 13 14  1  0
 14 15  1  0
 15 16  2  0
 16 17  1  0
 17 18  1  0
 17 19  1  0
 16 20  1  0
 20 21  1  0
  8  4  1  0
 21 10  1  0
 21 14  2  0
  3 22  1  0
  3 23  1  0
  5 24  1  0
  6 25  1  0
  9 26  1  0
 11 27  1  0
 12 28  1  0
 13 29  1  0
 17 30  1  0
M  END
>  <Energy>  (1491) 
1335.6755736620071

>  <compound_id>  (1491) 
28140

>  <target_id>  (1491) 
1

>  <reference_id>  (1491) 
69

>  <inspiration_ids>  (1491) 
[69, 187]

>  <energy_score>  (1491) 
1198.1411243616171

>  <distance_score>  (1491) 
11.493045053849885

>  <path>  (1491) 
/opt/xchem-fragalysis-2/maxwin/BulkDock/SCRATCH/511017/C28140-P69/C28140-P69.minimised.mol

>  <scratch_subdir>  (1491) 
/opt/xchem-fragalysis-2/maxwin/BulkDock/SCRATCH/511017/C28140-P69

>  <fragmenstein_runtime>  (1491) 
12.863547086715698

>  <fragmenstein_outcome>  (1491) 
too moved

>  <fragmenstein_mode>  (1491) 
expansion

>  <fragmenstein_error>  (1491) 


$$$$
C28140-P187
     RDKit          3D

 30 32  0  0  0  0  0  0  0  0999 V2000
   -5.3060   -4.3580   13.7804 O   0  0  0  0  0  0  0  0  0  0  0  0
   -6.4205   -4.0085   14.1142 C   0  0  0  0  0  0  0  0  0  0  0  0
   -7.3059   -5.2553   14.3924 C   0  0  0  0  0  0  0  0  0  0  0  0
   -6.7518   -6.3433   15.3034 C   0  0  0  0  0  0  0  0  0  0  0  0
   -5.4804   -6.8798   15.4051 C   0  0  0  0  0  0  0  0  0  0  0  0
   -5.4569   -7.9374   16.3490 C   0  0  0  0  0  0  0  0  0  0  0  0
   -6.6012   -8.2090   16.9694 N   0  0  0  0  0  0  0  0  0  0  0  0
   -7.7553   -7.1482   16.4440 S   0  0  0  0  0  0  0  0  0  0  0  0
   -7.1056   -2.4629   14.1785 N   0  0  0  0  0  0  0  0  0  0  0  0
   -6.4304   -0.8548   13.6354 C   0  0  0  0  0  0  0  0  0  0  0  0
   -5.4766   -0.4546   14.3516 C   0  0  0  0  0  0  0  0  0  0  0  0
   -3.6178   -0.1063   13.6946 C   0  0  0  0  0  0  0  0  0  0  0  0
   -3.2692   -0.1265   12.3903 C   0  0  0  0  0  0  0  0  0  0  0  0
   -4.5175   -0.2510   11.4818 C   0  0  0  0  0  0  0  0  0  0  0  0
   -4.5245   -0.2373    9.8409 N   0  0  0  0  0  0  0  0  0  0  0  0
   -5.7251   -0.1706    9.2438 C   0  0  0  0  0  0  0  0  0  0  0  0
   -5.9116   -0.0820    7.7721 C   0  0  0  0  0  0  0  0  0  0  0  0
   -6.7841   -1.0062    7.2958 F   0  0  0  0  0  0  0  0  0  0  0  0
   -6.3760    1.1396    7.3856 F   0  0  0  0  0  0  0  0  0  0  0  0
   -7.1779    0.0954   10.2841 S   0  0  0  0  0  0  0  0  0  0  0  0
   -6.0918   -0.3150   12.0767 C   0  0  0  0  0  0  0  0  0  0  0  0
   -8.3785   -5.0542   14.4717 H   0  0  0  0  0  0  0  0  0  0  0  0
   -7.1610   -5.7126   13.4108 H   0  0  0  0  0  0  0  0  0  0  0  0
   -4.6357   -6.5654   14.8051 H   0  0  0  0  0  0  0  0  0  0  0  0
   -4.5968   -8.5479   16.5944 H   0  0  0  0  0  0  0  0  0  0  0  0
   -8.0869   -2.5301   14.4216 H   0  0  0  0  0  0  0  0  0  0  0  0
   -5.9030    0.2898   15.0577 H   0  0  0  0  0  0  0  0  0  0  0  0
   -3.2767    0.8413   14.3792 H   0  0  0  0  0  0  0  0  0  0  0  0
   -2.2161   -0.0414   12.1456 H   0  0  0  0  0  0  0  0  0  0  0  0
   -4.9442   -0.2244    7.2941 H   0  0  0  0  0  0  0  0  0  0  0  0
  1  2  2  0
  2  3  1  0
  3  4  1  0
  4  5  2  0
  5  6  1  0
  6  7  2  0
  7  8  1  0
  2  9  1  0
  9 10  1  0
 10 11  2  0
 11 12  1  0
 12 13  2  0
 13 14  1  0
 14 15  1  0
 15 16  2  0
 16 17  1  0
 17 18  1  0
 17 19  1  0
 16 20  1  0
 20 21  1  0
  8  4  1  0
 21 10  1  0
 21 14  2  0
  3 22  1  0
  3 23  1  0
  5 24  1  0
  6 25  1  0
  9 26  1  0
 11 27  1  0
 12 28  1  0
 13 29  1  0
 17 30  1  0
M  END
>  <Energy>  (1492) 
449.7335869336838

>  <compound_id>  (1492) 
28140

>  <target_id>  (1492) 
1

>  <reference_id>  (1492) 
187

>  <inspiration_ids>  (1492) 
[69, 187]

>  <energy_score>  (1492) 
312.1991376332761

>  <distance_score>  (1492) 
12.934842018170327

>  <path>  (1492) 
/opt/xchem-fragalysis-2/maxwin/BulkDock/SCRATCH/511017/C28140-P187/C28140-P187.minimised.mol

>  <scratch_subdir>  (1492) 
/opt/xchem-fragalysis-2/maxwin/BulkDock/SCRATCH/511017/C28140-P187

>  <fragmenstein_runtime>  (1492) 
11.79729962348938

>  <fragmenstein_outcome>  (1492) 
too moved

>  <fragmenstein_mode>  (1492) 
expansion

>  <fragmenstein_error>  (1492) 


$$$$
C32903-P68
     RDKit          3D

 37 40  0  0  0  0  0  0  0  0999 V2000
   -9.5151  -32.3092   30.1349 C   0  0  0  0  0  0  0  0  0  0  0  0
   -9.4422  -31.7311   28.2869 C   0  0  0  0  0  0  0  0  0  0  0  0
   -9.0813  -33.5720   27.5324 C   0  0  0  0  0  0  0  0  0  0  0  0
   -9.8146  -34.3191   26.2485 C   0  0  0  0  0  0  0  0  0  0  0  0
  -10.8545  -33.8699   25.5622 N   0  0  0  0  0  0  0  0  0  0  0  0
  -11.0059  -34.5862   24.3878 C   0  0  0  0  0  0  0  0  0  0  0  0
  -11.9017  -34.2786   23.3476 C   0  0  0  0  0  0  0  0  0  0  0  0
  -11.9252  -35.0703   22.1964 C   0  0  0  0  0  0  0  0  0  0  0  0
  -11.0798  -36.1680   22.0781 C   0  0  0  0  0  0  0  0  0  0  0  0
  -10.1966  -36.5058   23.1065 C   0  0  0  0  0  0  0  0  0  0  0  0
  -10.1767  -35.6958   24.2521 C   0  0  0  0  0  0  0  0  0  0  0  0
   -9.2257  -35.8410   25.6685 S   0  0  0  0  0  0  0  0  0  0  0  0
   -9.4756  -29.7186   27.9670 N   0  0  0  0  0  0  0  0  0  0  0  0
  -10.1083  -28.1256   27.4532 C   0  0  0  0  0  0  0  0  0  0  0  0
  -11.1944  -28.2431   26.7986 C   0  0  0  0  0  0  0  0  0  0  0  0
  -12.0592  -27.3715   26.0252 C   0  0  0  0  0  0  0  0  0  0  0  0
  -11.8611  -26.1772   25.7058 N   0  0  0  0  0  0  0  0  0  0  0  0
  -10.7590  -25.6943   26.2489 C   0  0  0  0  0  0  0  0  0  0  0  0
  -10.5122  -24.4124   26.1521 N   0  0  0  0  0  0  0  0  0  0  0  0
  -10.1201  -24.0821   27.3579 C   0  0  0  0  0  0  0  0  0  0  0  0
   -9.7051  -25.2011   27.9799 C   0  0  0  0  0  0  0  0  0  0  0  0
  -10.0631  -26.4195   27.2940 N   0  0  0  0  0  0  0  0  0  0  0  0
   -8.7432  -33.0699   30.2966 H   0  0  0  0  0  0  0  0  0  0  0  0
   -9.3343  -31.5796   30.9596 H   0  0  0  0  0  0  0  0  0  0  0  0
  -10.5015  -32.5219   30.5347 H   0  0  0  0  0  0  0  0  0  0  0  0
  -10.3777  -31.6863   27.9113 H   0  0  0  0  0  0  0  0  0  0  0  0
   -8.8338  -34.2887   28.3093 H   0  0  0  0  0  0  0  0  0  0  0  0
   -8.1120  -33.5260   26.9858 H   0  0  0  0  0  0  0  0  0  0  0  0
  -12.5529  -33.4157   23.4370 H   0  0  0  0  0  0  0  0  0  0  0  0
  -12.6060  -34.8208   21.3854 H   0  0  0  0  0  0  0  0  0  0  0  0
  -11.1070  -36.7739   21.1745 H   0  0  0  0  0  0  0  0  0  0  0  0
   -9.5388  -37.3649   23.0167 H   0  0  0  0  0  0  0  0  0  0  0  0
   -8.9535  -29.3146   28.7814 H   0  0  0  0  0  0  0  0  0  0  0  0
  -11.4680  -29.1956   27.1367 H   0  0  0  0  0  0  0  0  0  0  0  0
  -13.0141  -27.7181   25.6670 H   0  0  0  0  0  0  0  0  0  0  0  0
  -10.1837  -23.1118   27.8119 H   0  0  0  0  0  0  0  0  0  0  0  0
   -9.2549  -25.1541   28.9238 H   0  0  0  0  0  0  0  0  0  0  0  0
  1  2  1  0
  2  3  1  0
  3  4  1  0
  4  5  2  0
  5  6  1  0
  6  7  2  0
  7  8  1  0
  8  9  2  0
  9 10  1  0
 10 11  2  0
 11 12  1  0
  2 13  1  0
 13 14  1  0
 14 15  2  0
 15 16  1  0
 16 17  2  0
 17 18  1  0
 18 19  2  0
 19 20  1  0
 20 21  2  0
 21 22  1  0
 12  4  1  0
 22 14  1  0
 11  6  1  0
 22 18  1  0
  1 23  1  0
  1 24  1  0
  1 25  1  0
  2 26  1  0
  3 27  1  0
  3 28  1  0
  7 29  1  0
  8 30  1  0
  9 31  1  0
 10 32  1  0
 13 33  1  0
 15 34  1  0
 16 35  1  0
 20 36  1  0
 21 37  1  0
M  END
>  <Energy>  (1493) 
578.57567388764642

>  <compound_id>  (1493) 
32903

>  <target_id>  (1493) 
1

>  <reference_id>  (1493) 
68

>  <inspiration_ids>  (1493) 
[68, 107]

>  <energy_score>  (1493) 
433.65908749801565

>  <distance_score>  (1493) 
4.487776709340873

>  <path>  (1493) 
/opt/xchem-fragalysis-2/maxwin/BulkDock/SCRATCH/511017/C32903-P68/C32903-P68.minimised.mol

>  <scratch_subdir>  (1493) 
/opt/xchem-fragalysis-2/maxwin/BulkDock/SCRATCH/511017/C32903-P68

>  <fragmenstein_runtime>  (1493) 
6.903729200363159

>  <fragmenstein_outcome>  (1493) 
too moved

>  <fragmenstein_mode>  (1493) 
expansion

>  <fragmenstein_error>  (1493) 


$$$$
C32903-P107
     RDKit          3D

 37 40  0  0  0  0  0  0  0  0999 V2000
  -14.0046  -31.0033   29.8145 C   0  0  0  0  0  0  0  0  0  0  0  0
  -14.2358  -30.0563   28.6306 C   0  0  0  0  0  0  0  0  0  0  0  0
  -14.6313  -30.8777   27.3561 C   0  0  0  0  0  0  0  0  0  0  0  0
  -13.8577  -32.0860   26.7662 C   0  0  0  0  0  0  0  0  0  0  0  0
  -14.3076  -33.3292   26.8462 N   0  0  0  0  0  0  0  0  0  0  0  0
  -13.6926  -34.1624   25.8977 C   0  0  0  0  0  0  0  0  0  0  0  0
  -13.9412  -35.5342   25.6930 C   0  0  0  0  0  0  0  0  0  0  0  0
  -13.2451  -36.2295   24.6941 C   0  0  0  0  0  0  0  0  0  0  0  0
  -12.3096  -35.5795   23.8946 C   0  0  0  0  0  0  0  0  0  0  0  0
  -12.0354  -34.2244   24.0817 C   0  0  0  0  0  0  0  0  0  0  0  0
  -12.7339  -33.5470   25.0959 C   0  0  0  0  0  0  0  0  0  0  0  0
  -12.5329  -31.9413   25.6533 S   0  0  0  0  0  0  0  0  0  0  0  0
  -13.1102  -29.0606   28.6104 N   0  0  0  0  0  0  0  0  0  0  0  0
  -13.0398  -27.6730   28.2593 C   0  0  0  0  0  0  0  0  0  0  0  0
  -13.8507  -27.0639   27.3681 C   0  0  0  0  0  0  0  0  0  0  0  0
  -13.5660  -25.6447   27.0314 C   0  0  0  0  0  0  0  0  0  0  0  0
  -12.7135  -24.8650   27.6083 N   0  0  0  0  0  0  0  0  0  0  0  0
  -11.9832  -25.4299   28.6087 C   0  0  0  0  0  0  0  0  0  0  0  0
  -11.1227  -24.8324   29.4085 N   0  0  0  0  0  0  0  0  0  0  0  0
  -10.6882  -25.7924   30.2749 C   0  0  0  0  0  0  0  0  0  0  0  0
  -11.2636  -27.0077   29.9914 C   0  0  0  0  0  0  0  0  0  0  0  0
  -12.0972  -26.7983   28.9154 N   0  0  0  0  0  0  0  0  0  0  0  0
  -14.7945  -31.7575   29.8875 H   0  0  0  0  0  0  0  0  0  0  0  0
  -13.9908  -30.4455   30.7575 H   0  0  0  0  0  0  0  0  0  0  0  0
  -13.0405  -31.5091   29.7289 H   0  0  0  0  0  0  0  0  0  0  0  0
  -15.1303  -29.4706   28.8835 H   0  0  0  0  0  0  0  0  0  0  0  0
  -14.9144  -30.1948   26.5536 H   0  0  0  0  0  0  0  0  0  0  0  0
  -15.6055  -31.3242   27.6196 H   0  0  0  0  0  0  0  0  0  0  0  0
  -14.6705  -36.0435   26.3145 H   0  0  0  0  0  0  0  0  0  0  0  0
  -13.4414  -37.2888   24.5444 H   0  0  0  0  0  0  0  0  0  0  0  0
  -11.7753  -36.1331   23.1253 H   0  0  0  0  0  0  0  0  0  0  0  0
  -11.2830  -33.7165   23.4843 H   0  0  0  0  0  0  0  0  0  0  0  0
  -12.5471  -29.1915   29.4501 H   0  0  0  0  0  0  0  0  0  0  0  0
  -14.6515  -27.5470   26.8298 H   0  0  0  0  0  0  0  0  0  0  0  0
  -14.1678  -25.2422   26.1994 H   0  0  0  0  0  0  0  0  0  0  0  0
   -9.9828  -25.5664   31.0651 H   0  0  0  0  0  0  0  0  0  0  0  0
  -11.1575  -27.9555   30.4903 H   0  0  0  0  0  0  0  0  0  0  0  0
  1  2  1  0
  2  3  1  0
  3  4  1  0
  4  5  2  0
  5  6  1  0
  6  7  2  0
  7  8  1  0
  8  9  2  0
  9 10  1  0
 10 11  2  0
 11 12  1  0
  2 13  1  0
 13 14  1  0
 14 15  2  0
 15 16  1  0
 16 17  2  0
 17 18  1  0
 18 19  2  0
 19 20  1  0
 20 21  2  0
 21 22  1  0
 12  4  1  0
 22 14  1  0
 11  6  1  0
 22 18  1  0
  1 23  1  0
  1 24  1  0
  1 25  1  0
  2 26  1  0
  3 27  1  0
  3 28  1  0
  7 29  1  0
  8 30  1  0
  9 31  1  0
 10 32  1  0
 13 33  1  0
 15 34  1  0
 16 35  1  0
 20 36  1  0
 21 37  1  0
M  END
>  <Energy>  (1494) 
97.383548669303579

>  <compound_id>  (1494) 
32903

>  <target_id>  (1494) 
1

>  <reference_id>  (1494) 
107

>  <inspiration_ids>  (1494) 
[68, 107]

>  <energy_score>  (1494) 
-47.533037720322056

>  <distance_score>  (1494) 
4.909888431658682

>  <path>  (1494) 
/opt/xchem-fragalysis-2/maxwin/BulkDock/SCRATCH/511017/C32903-P107/C32903-P107.minimised.mol

>  <scratch_subdir>  (1494) 
/opt/xchem-fragalysis-2/maxwin/BulkDock/SCRATCH/511017/C32903-P107

>  <fragmenstein_runtime>  (1494) 
3.7553822994232178

>  <fragmenstein_outcome>  (1494) 
too moved

>  <fragmenstein_mode>  (1494) 
expansion

>  <fragmenstein_error>  (1494) 


$$$$
C32906-P68
     RDKit          3D

 34 37  0  0  0  0  0  0  0  0999 V2000
   -8.6621  -39.2675   24.9412 C   0  0  0  0  0  0  0  0  0  0  0  0
   -9.1524  -37.8498   24.9922 C   0  0  0  0  0  0  0  0  0  0  0  0
   -9.7378  -37.2623   23.8853 C   0  0  0  0  0  0  0  0  0  0  0  0
  -10.2002  -35.9573   23.9702 C   0  0  0  0  0  0  0  0  0  0  0  0
  -10.0141  -35.2396   25.1730 C   0  0  0  0  0  0  0  0  0  0  0  0
  -10.7866  -33.7907   25.5417 S   0  0  0  0  0  0  0  0  0  0  0  0
   -9.5999  -33.6395   27.2835 C   0  0  0  0  0  0  0  0  0  0  0  0
   -9.8072  -31.7841   28.0955 C   0  0  0  0  0  0  0  0  0  0  0  0
   -9.6792  -29.8101   27.7289 N   0  0  0  0  0  0  0  0  0  0  0  0
  -10.1536  -28.2434   27.0507 C   0  0  0  0  0  0  0  0  0  0  0  0
  -11.3885  -28.1559   26.7509 C   0  0  0  0  0  0  0  0  0  0  0  0
  -12.3243  -27.2308   26.0559 C   0  0  0  0  0  0  0  0  0  0  0  0
  -12.0658  -26.0539   25.7103 N   0  0  0  0  0  0  0  0  0  0  0  0
  -10.8357  -25.7177   26.0883 C   0  0  0  0  0  0  0  0  0  0  0  0
  -10.4257  -24.4731   26.0127 N   0  0  0  0  0  0  0  0  0  0  0  0
   -9.9925  -24.2437   27.2260 C   0  0  0  0  0  0  0  0  0  0  0  0
   -9.7871  -25.4407   27.7963 C   0  0  0  0  0  0  0  0  0  0  0  0
  -10.0968  -26.5500   26.9925 N   0  0  0  0  0  0  0  0  0  0  0  0
   -8.9861  -34.8070   27.3823 N   0  0  0  0  0  0  0  0  0  0  0  0
   -9.2960  -35.7101   26.2621 C   0  0  0  0  0  0  0  0  0  0  0  0
   -8.9498  -37.0756   26.1503 C   0  0  0  0  0  0  0  0  0  0  0  0
   -9.3114  -39.8804   24.3073 H   0  0  0  0  0  0  0  0  0  0  0  0
   -8.6606  -39.7202   25.9382 H   0  0  0  0  0  0  0  0  0  0  0  0
   -7.6447  -39.2960   24.5392 H   0  0  0  0  0  0  0  0  0  0  0  0
   -9.8815  -37.8257   22.9666 H   0  0  0  0  0  0  0  0  0  0  0  0
  -10.7468  -35.5168   23.1404 H   0  0  0  0  0  0  0  0  0  0  0  0
   -8.8487  -31.6098   28.3282 H   0  0  0  0  0  0  0  0  0  0  0  0
   -9.8981  -32.2600   29.1069 H   0  0  0  0  0  0  0  0  0  0  0  0
   -9.1580  -29.3975   28.5164 H   0  0  0  0  0  0  0  0  0  0  0  0
  -11.5616  -28.2295   27.8369 H   0  0  0  0  0  0  0  0  0  0  0  0
  -13.3466  -27.5346   25.8142 H   0  0  0  0  0  0  0  0  0  0  0  0
   -9.9047  -23.3066   27.7352 H   0  0  0  0  0  0  0  0  0  0  0  0
   -9.4865  -25.5374   28.7818 H   0  0  0  0  0  0  0  0  0  0  0  0
   -8.4769  -37.5468   26.9882 H   0  0  0  0  0  0  0  0  0  0  0  0
  1  2  1  0
  2  3  2  0
  3  4  1  0
  4  5  2  0
  5  6  1  0
  6  7  1  0
  7  8  1  0
  8  9  1  0
  9 10  1  0
 10 11  2  0
 11 12  1  0
 12 13  2  0
 13 14  1  0
 14 15  2  0
 15 16  1  0
 16 17  2  0
 17 18  1  0
  7 19  2  0
 19 20  1  0
 20 21  2  0
 21  2  1  0
 20  5  1  0
 18 10  1  0
 18 14  1  0
  1 22  1  0
  1 23  1  0
  1 24  1  0
  3 25  1  0
  4 26  1  0
  8 27  1  0
  8 28  1  0
  9 29  1  0
 11 30  1  0
 12 31  1  0
 16 32  1  0
 17 33  1  0
 21 34  1  0
M  END
>  <Energy>  (1495) 
595.34100125251689

>  <compound_id>  (1495) 
32906

>  <target_id>  (1495) 
1

>  <reference_id>  (1495) 
68

>  <inspiration_ids>  (1495) 
[68, 107]

>  <energy_score>  (1495) 
439.8947148608638

>  <distance_score>  (1495) 
4.892621646020154

>  <path>  (1495) 
/opt/xchem-fragalysis-2/maxwin/BulkDock/SCRATCH/511017/C32906-P68/C32906-P68.minimised.mol

>  <scratch_subdir>  (1495) 
/opt/xchem-fragalysis-2/maxwin/BulkDock/SCRATCH/511017/C32906-P68

>  <fragmenstein_runtime>  (1495) 
6.339676856994629

>  <fragmenstein_outcome>  (1495) 
too moved

>  <fragmenstein_mode>  (1495) 
expansion

>  <fragmenstein_error>  (1495) 


$$$$
C32906-P107
     RDKit          3D

 34 37  0  0  0  0  0  0  0  0999 V2000
  -11.3311  -33.6526   22.9949 C   0  0  0  0  0  0  0  0  0  0  0  0
  -12.2443  -33.3687   24.1519 C   0  0  0  0  0  0  0  0  0  0  0  0
  -13.4027  -34.1185   24.3570 C   0  0  0  0  0  0  0  0  0  0  0  0
  -14.2819  -33.8308   25.4122 C   0  0  0  0  0  0  0  0  0  0  0  0
  -13.9793  -32.7583   26.2690 C   0  0  0  0  0  0  0  0  0  0  0  0
  -14.8524  -32.1232   27.6226 S   0  0  0  0  0  0  0  0  0  0  0  0
  -13.6768  -30.8742   27.8499 C   0  0  0  0  0  0  0  0  0  0  0  0
  -13.9845  -29.6165   28.7203 C   0  0  0  0  0  0  0  0  0  0  0  0
  -12.9032  -28.9058   29.4384 N   0  0  0  0  0  0  0  0  0  0  0  0
  -12.1679  -27.6767   29.3548 C   0  0  0  0  0  0  0  0  0  0  0  0
  -11.2260  -27.4315   30.2986 C   0  0  0  0  0  0  0  0  0  0  0  0
  -10.5003  -26.1393   30.2769 C   0  0  0  0  0  0  0  0  0  0  0  0
  -10.6881  -25.1731   29.4421 N   0  0  0  0  0  0  0  0  0  0  0  0
  -11.6561  -25.3891   28.5128 C   0  0  0  0  0  0  0  0  0  0  0  0
  -12.0583  -24.5387   27.5912 N   0  0  0  0  0  0  0  0  0  0  0  0
  -13.0259  -25.1850   26.8908 C   0  0  0  0  0  0  0  0  0  0  0  0
  -13.2743  -26.4272   27.4178 C   0  0  0  0  0  0  0  0  0  0  0  0
  -12.3769  -26.6038   28.4410 N   0  0  0  0  0  0  0  0  0  0  0  0
  -12.6297  -31.0087   27.0629 N   0  0  0  0  0  0  0  0  0  0  0  0
  -12.8260  -32.0013   26.0960 C   0  0  0  0  0  0  0  0  0  0  0  0
  -11.9609  -32.2999   25.0136 C   0  0  0  0  0  0  0  0  0  0  0  0
  -10.2868  -33.4731   23.2718 H   0  0  0  0  0  0  0  0  0  0  0  0
  -11.5908  -33.0104   22.1477 H   0  0  0  0  0  0  0  0  0  0  0  0
  -11.4088  -34.6987   22.6810 H   0  0  0  0  0  0  0  0  0  0  0  0
  -13.6399  -34.9442   23.6877 H   0  0  0  0  0  0  0  0  0  0  0  0
  -15.1806  -34.4229   25.5565 H   0  0  0  0  0  0  0  0  0  0  0  0
  -14.6787  -29.9504   29.5033 H   0  0  0  0  0  0  0  0  0  0  0  0
  -14.5658  -28.9177   28.1147 H   0  0  0  0  0  0  0  0  0  0  0  0
  -12.5306  -29.5079   30.1720 H   0  0  0  0  0  0  0  0  0  0  0  0
  -10.9529  -28.1085   31.0965 H   0  0  0  0  0  0  0  0  0  0  0  0
   -9.7340  -26.0238   31.0625 H   0  0  0  0  0  0  0  0  0  0  0  0
  -13.5048  -24.7211   26.0381 H   0  0  0  0  0  0  0  0  0  0  0  0
  -13.9821  -27.1758   27.1194 H   0  0  0  0  0  0  0  0  0  0  0  0
  -11.0669  -31.6952   24.8695 H   0  0  0  0  0  0  0  0  0  0  0  0
  1  2  1  0
  2  3  2  0
  3  4  1  0
  4  5  2  0
  5  6  1  0
  6  7  1  0
  7  8  1  0
  8  9  1  0
  9 10  1  0
 10 11  2  0
 11 12  1  0
 12 13  2  0
 13 14  1  0
 14 15  2  0
 15 16  1  0
 16 17  2  0
 17 18  1  0
  7 19  2  0
 19 20  1  0
 20 21  2  0
 21  2  1  0
 20  5  1  0
 18 10  1  0
 18 14  1  0
  1 22  1  0
  1 23  1  0
  1 24  1  0
  3 25  1  0
  4 26  1  0
  8 27  1  0
  8 28  1  0
  9 29  1  0
 11 30  1  0
 12 31  1  0
 16 32  1  0
 17 33  1  0
 21 34  1  0
M  END
>  <Energy>  (1496) 
101.72747287999367

>  <compound_id>  (1496) 
32906

>  <target_id>  (1496) 
1

>  <reference_id>  (1496) 
107

>  <inspiration_ids>  (1496) 
[68, 107]

>  <energy_score>  (1496) 
-53.7188135116574

>  <distance_score>  (1496) 
5.600016925599966

>  <path>  (1496) 
/opt/xchem-fragalysis-2/maxwin/BulkDock/SCRATCH/511017/C32906-P107/C32906-P107.minimised.mol

>  <scratch_subdir>  (1496) 
/opt/xchem-fragalysis-2/maxwin/BulkDock/SCRATCH/511017/C32906-P107

>  <fragmenstein_runtime>  (1496) 
5.537674903869629

>  <fragmenstein_outcome>  (1496) 
too moved

>  <fragmenstein_mode>  (1496) 
expansion

>  <fragmenstein_error>  (1496) 


$$$$
C32906-P68
     RDKit          3D

 34 37  0  0  0  0  0  0  0  0999 V2000
   -8.6621  -39.2675   24.9412 C   0  0  0  0  0  0  0  0  0  0  0  0
   -9.1524  -37.8498   24.9922 C   0  0  0  0  0  0  0  0  0  0  0  0
   -9.7378  -37.2623   23.8853 C   0  0  0  0  0  0  0  0  0  0  0  0
  -10.2002  -35.9573   23.9702 C   0  0  0  0  0  0  0  0  0  0  0  0
  -10.0141  -35.2396   25.1730 C   0  0  0  0  0  0  0  0  0  0  0  0
  -10.7866  -33.7907   25.5417 S   0  0  0  0  0  0  0  0  0  0  0  0
   -9.5999  -33.6395   27.2835 C   0  0  0  0  0  0  0  0  0  0  0  0
   -9.8072  -31.7841   28.0955 C   0  0  0  0  0  0  0  0  0  0  0  0
   -9.6792  -29.8101   27.7289 N   0  0  0  0  0  0  0  0  0  0  0  0
  -10.1536  -28.2434   27.0507 C   0  0  0  0  0  0  0  0  0  0  0  0
  -11.3885  -28.1559   26.7509 C   0  0  0  0  0  0  0  0  0  0  0  0
  -12.3243  -27.2308   26.0559 C   0  0  0  0  0  0  0  0  0  0  0  0
  -12.0658  -26.0539   25.7103 N   0  0  0  0  0  0  0  0  0  0  0  0
  -10.8357  -25.7177   26.0883 C   0  0  0  0  0  0  0  0  0  0  0  0
  -10.4257  -24.4731   26.0127 N   0  0  0  0  0  0  0  0  0  0  0  0
   -9.9925  -24.2437   27.2260 C   0  0  0  0  0  0  0  0  0  0  0  0
   -9.7871  -25.4407   27.7963 C   0  0  0  0  0  0  0  0  0  0  0  0
  -10.0968  -26.5500   26.9925 N   0  0  0  0  0  0  0  0  0  0  0  0
   -8.9861  -34.8070   27.3823 N   0  0  0  0  0  0  0  0  0  0  0  0
   -9.2960  -35.7101   26.2621 C   0  0  0  0  0  0  0  0  0  0  0  0
   -8.9498  -37.0756   26.1503 C   0  0  0  0  0  0  0  0  0  0  0  0
   -9.3114  -39.8804   24.3073 H   0  0  0  0  0  0  0  0  0  0  0  0
   -8.6606  -39.7202   25.9382 H   0  0  0  0  0  0  0  0  0  0  0  0
   -7.6447  -39.2960   24.5392 H   0  0  0  0  0  0  0  0  0  0  0  0
   -9.8815  -37.8257   22.9666 H   0  0  0  0  0  0  0  0  0  0  0  0
  -10.7468  -35.5168   23.1404 H   0  0  0  0  0  0  0  0  0  0  0  0
   -8.8487  -31.6098   28.3282 H   0  0  0  0  0  0  0  0  0  0  0  0
   -9.8981  -32.2600   29.1069 H   0  0  0  0  0  0  0  0  0  0  0  0
   -9.1580  -29.3975   28.5164 H   0  0  0  0  0  0  0  0  0  0  0  0
  -11.5616  -28.2295   27.8369 H   0  0  0  0  0  0  0  0  0  0  0  0
  -13.3466  -27.5346   25.8142 H   0  0  0  0  0  0  0  0  0  0  0  0
   -9.9047  -23.3066   27.7352 H   0  0  0  0  0  0  0  0  0  0  0  0
   -9.4865  -25.5374   28.7818 H   0  0  0  0  0  0  0  0  0  0  0  0
   -8.4769  -37.5468   26.9882 H   0  0  0  0  0  0  0  0  0  0  0  0
  1  2  1  0
  2  3  2  0
  3  4  1  0
  4  5  2  0
  5  6  1  0
  6  7  1  0
  7  8  1  0
  8  9  1  0
  9 10  1  0
 10 11  2  0
 11 12  1  0
 12 13  2  0
 13 14  1  0
 14 15  2  0
 15 16  1  0
 16 17  2  0
 17 18  1  0
  7 19  2  0
 19 20  1  0
 20 21  2  0
 21  2  1  0
 20  5  1  0
 18 10  1  0
 18 14  1  0
  1 22  1  0
  1 23  1  0
  1 24  1  0
  3 25  1  0
  4 26  1  0
  8 27  1  0
  8 28  1  0
  9 29  1  0
 11 30  1  0
 12 31  1  0
 16 32  1  0
 17 33  1  0
 21 34  1  0
M  END
>  <Energy>  (1497) 
595.34100125251689

>  <compound_id>  (1497) 
32906

>  <target_id>  (1497) 
1

>  <reference_id>  (1497) 
68

>  <inspiration_ids>  (1497) 
[68, 107]

>  <energy_score>  (1497) 
439.8947148608638

>  <distance_score>  (1497) 
4.892621646020154

>  <path>  (1497) 
/opt/xchem-fragalysis-2/maxwin/BulkDock/SCRATCH/511017/C32906-P68/C32906-P68.minimised.mol

>  <scratch_subdir>  (1497) 
/opt/xchem-fragalysis-2/maxwin/BulkDock/SCRATCH/511017/C32906-P68

>  <fragmenstein_runtime>  (1497) 
5.774123907089233

>  <fragmenstein_outcome>  (1497) 
too moved

>  <fragmenstein_mode>  (1497) 
expansion

>  <fragmenstein_error>  (1497) 


$$$$
C32906-P107
     RDKit          3D

 34 37  0  0  0  0  0  0  0  0999 V2000
  -11.3311  -33.6526   22.9949 C   0  0  0  0  0  0  0  0  0  0  0  0
  -12.2443  -33.3687   24.1519 C   0  0  0  0  0  0  0  0  0  0  0  0
  -13.4027  -34.1185   24.3570 C   0  0  0  0  0  0  0  0  0  0  0  0
  -14.2819  -33.8308   25.4122 C   0  0  0  0  0  0  0  0  0  0  0  0
  -13.9793  -32.7583   26.2690 C   0  0  0  0  0  0  0  0  0  0  0  0
  -14.8524  -32.1232   27.6226 S   0  0  0  0  0  0  0  0  0  0  0  0
  -13.6768  -30.8742   27.8499 C   0  0  0  0  0  0  0  0  0  0  0  0
  -13.9845  -29.6165   28.7203 C   0  0  0  0  0  0  0  0  0  0  0  0
  -12.9032  -28.9058   29.4384 N   0  0  0  0  0  0  0  0  0  0  0  0
  -12.1679  -27.6767   29.3548 C   0  0  0  0  0  0  0  0  0  0  0  0
  -11.2260  -27.4315   30.2986 C   0  0  0  0  0  0  0  0  0  0  0  0
  -10.5003  -26.1393   30.2769 C   0  0  0  0  0  0  0  0  0  0  0  0
  -10.6881  -25.1731   29.4421 N   0  0  0  0  0  0  0  0  0  0  0  0
  -11.6561  -25.3891   28.5128 C   0  0  0  0  0  0  0  0  0  0  0  0
  -12.0583  -24.5387   27.5912 N   0  0  0  0  0  0  0  0  0  0  0  0
  -13.0259  -25.1850   26.8908 C   0  0  0  0  0  0  0  0  0  0  0  0
  -13.2743  -26.4272   27.4178 C   0  0  0  0  0  0  0  0  0  0  0  0
  -12.3769  -26.6038   28.4410 N   0  0  0  0  0  0  0  0  0  0  0  0
  -12.6297  -31.0087   27.0629 N   0  0  0  0  0  0  0  0  0  0  0  0
  -12.8260  -32.0013   26.0960 C   0  0  0  0  0  0  0  0  0  0  0  0
  -11.9609  -32.2999   25.0136 C   0  0  0  0  0  0  0  0  0  0  0  0
  -10.2868  -33.4731   23.2718 H   0  0  0  0  0  0  0  0  0  0  0  0
  -11.5908  -33.0104   22.1477 H   0  0  0  0  0  0  0  0  0  0  0  0
  -11.4088  -34.6987   22.6810 H   0  0  0  0  0  0  0  0  0  0  0  0
  -13.6399  -34.9442   23.6877 H   0  0  0  0  0  0  0  0  0  0  0  0
  -15.1806  -34.4229   25.5565 H   0  0  0  0  0  0  0  0  0  0  0  0
  -14.6787  -29.9504   29.5033 H   0  0  0  0  0  0  0  0  0  0  0  0
  -14.5658  -28.9177   28.1147 H   0  0  0  0  0  0  0  0  0  0  0  0
  -12.5306  -29.5079   30.1720 H   0  0  0  0  0  0  0  0  0  0  0  0
  -10.9529  -28.1085   31.0965 H   0  0  0  0  0  0  0  0  0  0  0  0
   -9.7340  -26.0238   31.0625 H   0  0  0  0  0  0  0  0  0  0  0  0
  -13.5048  -24.7211   26.0381 H   0  0  0  0  0  0  0  0  0  0  0  0
  -13.9821  -27.1758   27.1194 H   0  0  0  0  0  0  0  0  0  0  0  0
  -11.0669  -31.6952   24.8695 H   0  0  0  0  0  0  0  0  0  0  0  0
  1  2  1  0
  2  3  2  0
  3  4  1  0
  4  5  2  0
  5  6  1  0
  6  7  1  0
  7  8  1  0
  8  9  1  0
  9 10  1  0
 10 11  2  0
 11 12  1  0
 12 13  2  0
 13 14  1  0
 14 15  2  0
 15 16  1  0
 16 17  2  0
 17 18  1  0
  7 19  2  0
 19 20  1  0
 20 21  2  0
 21  2  1  0
 20  5  1  0
 18 10  1  0
 18 14  1  0
  1 22  1  0
  1 23  1  0
  1 24  1  0
  3 25  1  0
  4 26  1  0
  8 27  1  0
  8 28  1  0
  9 29  1  0
 11 30  1  0
 12 31  1  0
 16 32  1  0
 17 33  1  0
 21 34  1  0
M  END
>  <Energy>  (1498) 
101.72747287999367

>  <compound_id>  (1498) 
32906

>  <target_id>  (1498) 
1

>  <reference_id>  (1498) 
107

>  <inspiration_ids>  (1498) 
[68, 107]

>  <energy_score>  (1498) 
-53.7188135116574

>  <distance_score>  (1498) 
5.600016925599966

>  <path>  (1498) 
/opt/xchem-fragalysis-2/maxwin/BulkDock/SCRATCH/511017/C32906-P107/C32906-P107.minimised.mol

>  <scratch_subdir>  (1498) 
/opt/xchem-fragalysis-2/maxwin/BulkDock/SCRATCH/511017/C32906-P107

>  <fragmenstein_runtime>  (1498) 
5.557126045227051

>  <fragmenstein_outcome>  (1498) 
too moved

>  <fragmenstein_mode>  (1498) 
expansion

>  <fragmenstein_error>  (1498) 


$$$$
C32910-P68
     RDKit          3D

 30 33  0  0  0  0  0  0  0  0999 V2000
  -10.2404  -29.1369   27.5199 O   0  0  0  0  0  0  0  0  0  0  0  0
  -11.3297  -28.9342   27.0076 C   0  0  0  0  0  0  0  0  0  0  0  0
  -12.6607  -30.1546   26.4544 N   0  0  0  0  0  0  0  0  0  0  0  0
  -12.6666  -31.5666   26.4126 C   0  0  0  0  0  0  0  0  0  0  0  0
  -11.7861  -32.4331   25.9768 N   0  0  0  0  0  0  0  0  0  0  0  0
  -12.3504  -33.5294   25.3142 C   0  0  0  0  0  0  0  0  0  0  0  0
  -11.7100  -34.5769   24.6116 C   0  0  0  0  0  0  0  0  0  0  0  0
  -10.0074  -34.5359   24.5110 Cl  0  0  0  0  0  0  0  0  0  0  0  0
  -12.4324  -35.6083   24.0180 C   0  0  0  0  0  0  0  0  0  0  0  0
  -13.8162  -35.6128   24.1179 C   0  0  0  0  0  0  0  0  0  0  0  0
  -14.4884  -34.5972   24.8085 C   0  0  0  0  0  0  0  0  0  0  0  0
  -13.7380  -33.5634   25.3977 C   0  0  0  0  0  0  0  0  0  0  0  0
  -14.2886  -32.1826   26.2787 S   0  0  0  0  0  0  0  0  0  0  0  0
  -11.8080  -27.2880   26.5335 C   0  0  0  0  0  0  0  0  0  0  0  0
  -10.6271  -26.4812   26.2278 C   0  0  0  0  0  0  0  0  0  0  0  0
  -10.6862  -25.1485   26.3140 C   0  0  0  0  0  0  0  0  0  0  0  0
  -11.9742  -24.6136   26.2925 N   0  0  0  0  0  0  0  0  0  0  0  0
  -12.3886  -23.3432   26.0111 C   0  0  0  0  0  0  0  0  0  0  0  0
  -13.5687  -23.5067   25.3226 C   0  0  0  0  0  0  0  0  0  0  0  0
  -14.0016  -24.8164   25.4034 N   0  0  0  0  0  0  0  0  0  0  0  0
  -13.0607  -25.4693   26.0414 C   0  0  0  0  0  0  0  0  0  0  0  0
  -13.0150  -26.8003   26.3252 N   0  0  0  0  0  0  0  0  0  0  0  0
  -13.4702  -29.6790   26.1538 H   0  0  0  0  0  0  0  0  0  0  0  0
  -11.9193  -36.4016   23.4806 H   0  0  0  0  0  0  0  0  0  0  0  0
  -14.3881  -36.4155   23.6551 H   0  0  0  0  0  0  0  0  0  0  0  0
  -15.5731  -34.6076   24.8817 H   0  0  0  0  0  0  0  0  0  0  0  0
   -9.8557  -27.0488   25.8018 H   0  0  0  0  0  0  0  0  0  0  0  0
   -9.8534  -24.4913   26.1486 H   0  0  0  0  0  0  0  0  0  0  0  0
  -11.8680  -22.4643   26.3326 H   0  0  0  0  0  0  0  0  0  0  0  0
  -14.1795  -22.7472   24.8539 H   0  0  0  0  0  0  0  0  0  0  0  0
  1  2  2  0
  2  3  1  0
  3  4  1  0
  4  5  2  0
  5  6  1  0
  6  7  2  0
  7  8  1  0
  7  9  1  0
  9 10  2  0
 10 11  1  0
 11 12  2  0
 12 13  1  0
  2 14  1  0
 14 15  1  0
 15 16  2  0
 16 17  1  0
 17 18  1  0
 18 19  2  0
 19 20  1  0
 20 21  2  0
 21 22  1  0
 13  4  1  0
 22 14  2  0
 12  6  1  0
 21 17  1  0
  3 23  1  0
  9 24  1  0
 10 25  1  0
 11 26  1  0
 15 27  1  0
 16 28  1  0
 18 29  1  0
 19 30  1  0
M  END
>  <Energy>  (1499) 
179.42935064260669

>  <compound_id>  (1499) 
32910

>  <target_id>  (1499) 
1

>  <reference_id>  (1499) 
68

>  <inspiration_ids>  (1499) 
[68, 107]

>  <energy_score>  (1499) 
54.85238870199282

>  <distance_score>  (1499) 
5.765723150710679

>  <path>  (1499) 
/opt/xchem-fragalysis-2/maxwin/BulkDock/SCRATCH/511017/C32910-P68/C32910-P68.minimised.mol

>  <scratch_subdir>  (1499) 
/opt/xchem-fragalysis-2/maxwin/BulkDock/SCRATCH/511017/C32910-P68

>  <fragmenstein_runtime>  (1499) 
7.572585105895996

>  <fragmenstein_outcome>  (1499) 
too moved

>  <fragmenstein_mode>  (1499) 
expansion

>  <fragmenstein_error>  (1499) 


$$$$
C32910-P107
     RDKit          3D

 30 33  0  0  0  0  0  0  0  0999 V2000
  -10.5900  -27.3508   24.4540 O   0  0  0  0  0  0  0  0  0  0  0  0
  -10.6455  -28.0812   25.3997 C   0  0  0  0  0  0  0  0  0  0  0  0
  -10.4280  -29.7620   25.4953 N   0  0  0  0  0  0  0  0  0  0  0  0
  -10.2218  -30.7173   24.4702 C   0  0  0  0  0  0  0  0  0  0  0  0
  -10.7324  -31.9280   24.6955 N   0  0  0  0  0  0  0  0  0  0  0  0
  -10.2859  -32.8961   23.7911 C   0  0  0  0  0  0  0  0  0  0  0  0
  -10.6464  -34.2642   23.7095 C   0  0  0  0  0  0  0  0  0  0  0  0
  -11.9244  -34.7995   24.7094 Cl  0  0  0  0  0  0  0  0  0  0  0  0
  -10.0414  -35.1293   22.8105 C   0  0  0  0  0  0  0  0  0  0  0  0
   -9.0845  -34.6268   21.9416 C   0  0  0  0  0  0  0  0  0  0  0  0
   -8.7248  -33.2715   21.9581 C   0  0  0  0  0  0  0  0  0  0  0  0
   -9.3326  -32.4190   22.8975 C   0  0  0  0  0  0  0  0  0  0  0  0
   -9.1022  -30.7115   23.1797 S   0  0  0  0  0  0  0  0  0  0  0  0
  -11.0541  -27.1693   26.8335 C   0  0  0  0  0  0  0  0  0  0  0  0
  -12.3432  -26.3615   26.6931 C   0  0  0  0  0  0  0  0  0  0  0  0
  -12.7003  -25.5205   27.6786 C   0  0  0  0  0  0  0  0  0  0  0  0
  -11.8859  -25.3585   28.7778 N   0  0  0  0  0  0  0  0  0  0  0  0
  -12.0645  -24.6031   29.9118 C   0  0  0  0  0  0  0  0  0  0  0  0
  -10.9427  -24.8207   30.6640 C   0  0  0  0  0  0  0  0  0  0  0  0
  -10.0704  -25.6377   29.9786 N   0  0  0  0  0  0  0  0  0  0  0  0
  -10.6665  -26.0134   28.8552 C   0  0  0  0  0  0  0  0  0  0  0  0
  -10.2517  -26.8992   27.8518 N   0  0  0  0  0  0  0  0  0  0  0  0
  -10.6245  -30.0808   26.4308 H   0  0  0  0  0  0  0  0  0  0  0  0
  -10.3285  -36.1751   22.7632 H   0  0  0  0  0  0  0  0  0  0  0  0
   -8.6078  -35.2868   21.2186 H   0  0  0  0  0  0  0  0  0  0  0  0
   -7.9837  -32.8814   21.2628 H   0  0  0  0  0  0  0  0  0  0  0  0
  -12.9104  -26.4614   25.7774 H   0  0  0  0  0  0  0  0  0  0  0  0
  -13.5990  -24.9227   27.6387 H   0  0  0  0  0  0  0  0  0  0  0  0
  -12.9596  -24.0260   30.0951 H   0  0  0  0  0  0  0  0  0  0  0  0
  -10.6996  -24.4327   31.6450 H   0  0  0  0  0  0  0  0  0  0  0  0
  1  2  2  0
  2  3  1  0
  3  4  1  0
  4  5  2  0
  5  6  1  0
  6  7  2  0
  7  8  1  0
  7  9  1  0
  9 10  2  0
 10 11  1  0
 11 12  2  0
 12 13  1  0
  2 14  1  0
 14 15  1  0
 15 16  2  0
 16 17  1  0
 17 18  1  0
 18 19  2  0
 19 20  1  0
 20 21  2  0
 21 22  1  0
 13  4  1  0
 22 14  2  0
 12  6  1  0
 21 17  1  0
  3 23  1  0
  9 24  1  0
 10 25  1  0
 11 26  1  0
 15 27  1  0
 16 28  1  0
 18 29  1  0
 19 30  1  0
M  END
>  <Energy>  (1500) 
127.51641140809897

>  <compound_id>  (1500) 
32910

>  <target_id>  (1500) 
1

>  <reference_id>  (1500) 
107

>  <inspiration_ids>  (1500) 
[68, 107]

>  <energy_score>  (1500) 
-7.242797764246859

>  <distance_score>  (1500) 
4.240980061317419

>  <path>  (1500) 
/opt/xchem-fragalysis-2/maxwin/BulkDock/SCRATCH/511017/C32910-P107/C32910-P107.minimised.mol

>  <scratch_subdir>  (1500) 
/opt/xchem-fragalysis-2/maxwin/BulkDock/SCRATCH/511017/C32910-P107

>  <fragmenstein_runtime>  (1500) 
2.3316566944122314

>  <fragmenstein_outcome>  (1500) 
too moved

>  <fragmenstein_mode>  (1500) 
expansion

>  <fragmenstein_error>  (1500) 


$$$$
C32910-P68
     RDKit          3D

 30 33  0  0  0  0  0  0  0  0999 V2000
  -10.2404  -29.1369   27.5199 O   0  0  0  0  0  0  0  0  0  0  0  0
  -11.3297  -28.9342   27.0076 C   0  0  0  0  0  0  0  0  0  0  0  0
  -12.6607  -30.1546   26.4544 N   0  0  0  0  0  0  0  0  0  0  0  0
  -12.6666  -31.5666   26.4126 C   0  0  0  0  0  0  0  0  0  0  0  0
  -11.7861  -32.4331   25.9768 N   0  0  0  0  0  0  0  0  0  0  0  0
  -12.3504  -33.5294   25.3142 C   0  0  0  0  0  0  0  0  0  0  0  0
  -11.7100  -34.5769   24.6116 C   0  0  0  0  0  0  0  0  0  0  0  0
  -10.0074  -34.5359   24.5110 Cl  0  0  0  0  0  0  0  0  0  0  0  0
  -12.4324  -35.6083   24.0180 C   0  0  0  0  0  0  0  0  0  0  0  0
  -13.8162  -35.6128   24.1179 C   0  0  0  0  0  0  0  0  0  0  0  0
  -14.4884  -34.5972   24.8085 C   0  0  0  0  0  0  0  0  0  0  0  0
  -13.7380  -33.5634   25.3977 C   0  0  0  0  0  0  0  0  0  0  0  0
  -14.2886  -32.1826   26.2787 S   0  0  0  0  0  0  0  0  0  0  0  0
  -11.8080  -27.2880   26.5335 C   0  0  0  0  0  0  0  0  0  0  0  0
  -10.6271  -26.4812   26.2278 C   0  0  0  0  0  0  0  0  0  0  0  0
  -10.6862  -25.1485   26.3140 C   0  0  0  0  0  0  0  0  0  0  0  0
  -11.9742  -24.6136   26.2925 N   0  0  0  0  0  0  0  0  0  0  0  0
  -12.3886  -23.3432   26.0111 C   0  0  0  0  0  0  0  0  0  0  0  0
  -13.5687  -23.5067   25.3226 C   0  0  0  0  0  0  0  0  0  0  0  0
  -14.0016  -24.8164   25.4034 N   0  0  0  0  0  0  0  0  0  0  0  0
  -13.0607  -25.4693   26.0414 C   0  0  0  0  0  0  0  0  0  0  0  0
  -13.0150  -26.8003   26.3252 N   0  0  0  0  0  0  0  0  0  0  0  0
  -13.4702  -29.6790   26.1538 H   0  0  0  0  0  0  0  0  0  0  0  0
  -11.9193  -36.4016   23.4806 H   0  0  0  0  0  0  0  0  0  0  0  0
  -14.3881  -36.4155   23.6551 H   0  0  0  0  0  0  0  0  0  0  0  0
  -15.5731  -34.6076   24.8817 H   0  0  0  0  0  0  0  0  0  0  0  0
   -9.8557  -27.0488   25.8018 H   0  0  0  0  0  0  0  0  0  0  0  0
   -9.8534  -24.4913   26.1486 H   0  0  0  0  0  0  0  0  0  0  0  0
  -11.8680  -22.4643   26.3326 H   0  0  0  0  0  0  0  0  0  0  0  0
  -14.1795  -22.7472   24.8539 H   0  0  0  0  0  0  0  0  0  0  0  0
  1  2  2  0
  2  3  1  0
  3  4  1  0
  4  5  2  0
  5  6  1  0
  6  7  2  0
  7  8  1  0
  7  9  1  0
  9 10  2  0
 10 11  1  0
 11 12  2  0
 12 13  1  0
  2 14  1  0
 14 15  1  0
 15 16  2  0
 16 17  1  0
 17 18  1  0
 18 19  2  0
 19 20  1  0
 20 21  2  0
 21 22  1  0
 13  4  1  0
 22 14  2  0
 12  6  1  0
 21 17  1  0
  3 23  1  0
  9 24  1  0
 10 25  1  0
 11 26  1  0
 15 27  1  0
 16 28  1  0
 18 29  1  0
 19 30  1  0
M  END
>  <Energy>  (1501) 
179.42935064260669

>  <compound_id>  (1501) 
32910

>  <target_id>  (1501) 
1

>  <reference_id>  (1501) 
68

>  <inspiration_ids>  (1501) 
[68, 107]

>  <energy_score>  (1501) 
54.85238870199282

>  <distance_score>  (1501) 
5.765723150710679

>  <path>  (1501) 
/opt/xchem-fragalysis-2/maxwin/BulkDock/SCRATCH/511017/C32910-P68/C32910-P68.minimised.mol

>  <scratch_subdir>  (1501) 
/opt/xchem-fragalysis-2/maxwin/BulkDock/SCRATCH/511017/C32910-P68

>  <fragmenstein_runtime>  (1501) 
7.591027021408081

>  <fragmenstein_outcome>  (1501) 
too moved

>  <fragmenstein_mode>  (1501) 
expansion

>  <fragmenstein_error>  (1501) 


$$$$
C32910-P107
     RDKit          3D

 30 33  0  0  0  0  0  0  0  0999 V2000
  -10.5900  -27.3508   24.4540 O   0  0  0  0  0  0  0  0  0  0  0  0
  -10.6455  -28.0812   25.3997 C   0  0  0  0  0  0  0  0  0  0  0  0
  -10.4280  -29.7620   25.4953 N   0  0  0  0  0  0  0  0  0  0  0  0
  -10.2218  -30.7173   24.4702 C   0  0  0  0  0  0  0  0  0  0  0  0
  -10.7324  -31.9280   24.6955 N   0  0  0  0  0  0  0  0  0  0  0  0
  -10.2859  -32.8961   23.7911 C   0  0  0  0  0  0  0  0  0  0  0  0
  -10.6464  -34.2642   23.7095 C   0  0  0  0  0  0  0  0  0  0  0  0
  -11.9244  -34.7995   24.7094 Cl  0  0  0  0  0  0  0  0  0  0  0  0
  -10.0414  -35.1293   22.8105 C   0  0  0  0  0  0  0  0  0  0  0  0
   -9.0845  -34.6268   21.9416 C   0  0  0  0  0  0  0  0  0  0  0  0
   -8.7248  -33.2715   21.9581 C   0  0  0  0  0  0  0  0  0  0  0  0
   -9.3326  -32.4190   22.8975 C   0  0  0  0  0  0  0  0  0  0  0  0
   -9.1022  -30.7115   23.1797 S   0  0  0  0  0  0  0  0  0  0  0  0
  -11.0541  -27.1693   26.8335 C   0  0  0  0  0  0  0  0  0  0  0  0
  -12.3432  -26.3615   26.6931 C   0  0  0  0  0  0  0  0  0  0  0  0
  -12.7003  -25.5205   27.6786 C   0  0  0  0  0  0  0  0  0  0  0  0
  -11.8859  -25.3585   28.7778 N   0  0  0  0  0  0  0  0  0  0  0  0
  -12.0645  -24.6031   29.9118 C   0  0  0  0  0  0  0  0  0  0  0  0
  -10.9427  -24.8207   30.6640 C   0  0  0  0  0  0  0  0  0  0  0  0
  -10.0704  -25.6377   29.9786 N   0  0  0  0  0  0  0  0  0  0  0  0
  -10.6665  -26.0134   28.8552 C   0  0  0  0  0  0  0  0  0  0  0  0
  -10.2517  -26.8992   27.8518 N   0  0  0  0  0  0  0  0  0  0  0  0
  -10.6245  -30.0808   26.4308 H   0  0  0  0  0  0  0  0  0  0  0  0
  -10.3285  -36.1751   22.7632 H   0  0  0  0  0  0  0  0  0  0  0  0
   -8.6078  -35.2868   21.2186 H   0  0  0  0  0  0  0  0  0  0  0  0
   -7.9837  -32.8814   21.2628 H   0  0  0  0  0  0  0  0  0  0  0  0
  -12.9104  -26.4614   25.7774 H   0  0  0  0  0  0  0  0  0  0  0  0
  -13.5990  -24.9227   27.6387 H   0  0  0  0  0  0  0  0  0  0  0  0
  -12.9596  -24.0260   30.0951 H   0  0  0  0  0  0  0  0  0  0  0  0
  -10.6996  -24.4327   31.6450 H   0  0  0  0  0  0  0  0  0  0  0  0
  1  2  2  0
  2  3  1  0
  3  4  1  0
  4  5  2  0
  5  6  1  0
  6  7  2  0
  7  8  1  0
  7  9  1  0
  9 10  2  0
 10 11  1  0
 11 12  2  0
 12 13  1  0
  2 14  1  0
 14 15  1  0
 15 16  2  0
 16 17  1  0
 17 18  1  0
 18 19  2  0
 19 20  1  0
 20 21  2  0
 21 22  1  0
 13  4  1  0
 22 14  2  0
 12  6  1  0
 21 17  1  0
  3 23  1  0
  9 24  1  0
 10 25  1  0
 11 26  1  0
 15 27  1  0
 16 28  1  0
 18 29  1  0
 19 30  1  0
M  END
>  <Energy>  (1502) 
127.51641140809897

>  <compound_id>  (1502) 
32910

>  <target_id>  (1502) 
1

>  <reference_id>  (1502) 
107

>  <inspiration_ids>  (1502) 
[68, 107]

>  <energy_score>  (1502) 
-7.242797764246859

>  <distance_score>  (1502) 
4.240980061317419

>  <path>  (1502) 
/opt/xchem-fragalysis-2/maxwin/BulkDock/SCRATCH/511017/C32910-P107/C32910-P107.minimised.mol

>  <scratch_subdir>  (1502) 
/opt/xchem-fragalysis-2/maxwin/BulkDock/SCRATCH/511017/C32910-P107

>  <fragmenstein_runtime>  (1502) 
2.3034591674804688

>  <fragmenstein_outcome>  (1502) 
too moved

>  <fragmenstein_mode>  (1502) 
expansion

>  <fragmenstein_error>  (1502) 


$$$$
C32911-P68
     RDKit          3D

 33 36  0  0  0  0  0  0  0  0999 V2000
   -9.9317  -31.6951   21.2674 C   0  0  0  0  0  0  0  0  0  0  0  0
  -10.0548  -30.7015   22.6258 N   0  0  0  0  0  0  0  0  0  0  0  0
   -8.7604  -29.5506   23.4499 C   0  0  0  0  0  0  0  0  0  0  0  0
   -7.6100  -29.3809   23.2247 O   0  0  0  0  0  0  0  0  0  0  0  0
   -9.5929  -28.2291   24.9290 C   0  0  0  0  0  0  0  0  0  0  0  0
   -9.9202  -28.5830   26.7201 C   0  0  0  0  0  0  0  0  0  0  0  0
  -10.2202  -27.5210   27.4686 C   0  0  0  0  0  0  0  0  0  0  0  0
  -10.3969  -26.3392   26.7856 N   0  0  0  0  0  0  0  0  0  0  0  0
  -10.2806  -24.9654   26.8856 C   0  0  0  0  0  0  0  0  0  0  0  0
  -11.5132  -24.5935   26.3709 C   0  0  0  0  0  0  0  0  0  0  0  0
  -12.1235  -25.7241   25.7886 N   0  0  0  0  0  0  0  0  0  0  0  0
  -11.0807  -26.5215   25.6680 C   0  0  0  0  0  0  0  0  0  0  0  0
  -10.5036  -27.2664   24.6822 N   0  0  0  0  0  0  0  0  0  0  0  0
  -10.1916  -32.1512   23.2643 C   0  0  0  0  0  0  0  0  0  0  0  0
   -9.4603  -32.8913   24.0458 N   0  0  0  0  0  0  0  0  0  0  0  0
   -9.9939  -34.1648   24.2252 C   0  0  0  0  0  0  0  0  0  0  0  0
   -9.3645  -35.2356   24.8836 C   0  0  0  0  0  0  0  0  0  0  0  0
   -9.9966  -36.4764   24.9848 C   0  0  0  0  0  0  0  0  0  0  0  0
  -11.2587  -36.6599   24.4351 C   0  0  0  0  0  0  0  0  0  0  0  0
  -11.9133  -35.6113   23.7837 C   0  0  0  0  0  0  0  0  0  0  0  0
  -11.2579  -34.3728   23.6927 C   0  0  0  0  0  0  0  0  0  0  0  0
  -11.8057  -32.9169   22.9848 S   0  0  0  0  0  0  0  0  0  0  0  0
  -10.9472  -31.8227   20.8668 H   0  0  0  0  0  0  0  0  0  0  0  0
   -9.5024  -31.0061   20.5478 H   0  0  0  0  0  0  0  0  0  0  0  0
   -9.3789  -32.6400   21.3408 H   0  0  0  0  0  0  0  0  0  0  0  0
   -9.6775  -29.5048   27.2091 H   0  0  0  0  0  0  0  0  0  0  0  0
  -10.1794  -27.5450   28.5362 H   0  0  0  0  0  0  0  0  0  0  0  0
   -9.5976  -24.4373   27.5298 H   0  0  0  0  0  0  0  0  0  0  0  0
  -12.0119  -23.6349   26.4366 H   0  0  0  0  0  0  0  0  0  0  0  0
   -8.3779  -35.0803   25.2933 H   0  0  0  0  0  0  0  0  0  0  0  0
   -9.4901  -37.2980   25.4880 H   0  0  0  0  0  0  0  0  0  0  0  0
  -11.7426  -37.6319   24.5100 H   0  0  0  0  0  0  0  0  0  0  0  0
  -12.9016  -35.7555   23.3569 H   0  0  0  0  0  0  0  0  0  0  0  0
  1  2  1  0
  2  3  1  0
  3  4  2  0
  3  5  1  0
  5  6  1  0
  6  7  2  0
  7  8  1  0
  8  9  1  0
  9 10  2  0
 10 11  1  0
 11 12  2  0
 12 13  1  0
  2 14  1  0
 14 15  2  0
 15 16  1  0
 16 17  2  0
 17 18  1  0
 18 19  2  0
 19 20  1  0
 20 21  2  0
 21 22  1  0
 13  5  2  0
 22 14  1  0
 12  8  1  0
 21 16  1  0
  1 23  1  0
  1 24  1  0
  1 25  1  0
  6 26  1  0
  7 27  1  0
  9 28  1  0
 10 29  1  0
 17 30  1  0
 18 31  1  0
 19 32  1  0
 20 33  1  0
M  END
>  <Energy>  (1503) 
455.80053076102558

>  <compound_id>  (1503) 
32911

>  <target_id>  (1503) 
1

>  <reference_id>  (1503) 
68

>  <inspiration_ids>  (1503) 
[68, 107]

>  <energy_score>  (1503) 
286.0644814584059

>  <distance_score>  (1503) 
5.024618405658153

>  <path>  (1503) 
/opt/xchem-fragalysis-2/maxwin/BulkDock/SCRATCH/511017/C32911-P68/C32911-P68.minimised.mol

>  <scratch_subdir>  (1503) 
/opt/xchem-fragalysis-2/maxwin/BulkDock/SCRATCH/511017/C32911-P68

>  <fragmenstein_runtime>  (1503) 
8.387840270996094

>  <fragmenstein_outcome>  (1503) 
too moved

>  <fragmenstein_mode>  (1503) 
expansion

>  <fragmenstein_error>  (1503) 


$$$$
C32911-P107
     RDKit          3D

 33 36  0  0  0  0  0  0  0  0999 V2000
  -11.1699  -31.1588   24.2525 C   0  0  0  0  0  0  0  0  0  0  0  0
  -10.5739  -29.9261   25.2489 N   0  0  0  0  0  0  0  0  0  0  0  0
  -10.6470  -28.2194   25.0907 C   0  0  0  0  0  0  0  0  0  0  0  0
  -11.0846  -27.6073   24.1351 O   0  0  0  0  0  0  0  0  0  0  0  0
  -10.2932  -27.1735   26.2874 C   0  0  0  0  0  0  0  0  0  0  0  0
   -9.3276  -26.9180   27.4041 C   0  0  0  0  0  0  0  0  0  0  0  0
   -9.6769  -26.1004   28.4177 C   0  0  0  0  0  0  0  0  0  0  0  0
  -10.8906  -25.4739   28.4270 N   0  0  0  0  0  0  0  0  0  0  0  0
  -11.4738  -24.6794   29.3719 C   0  0  0  0  0  0  0  0  0  0  0  0
  -12.6875  -24.3377   28.8333 C   0  0  0  0  0  0  0  0  0  0  0  0
  -12.8437  -24.9056   27.5901 N   0  0  0  0  0  0  0  0  0  0  0  0
  -11.7376  -25.5921   27.3591 C   0  0  0  0  0  0  0  0  0  0  0  0
  -11.3998  -26.4075   26.3224 N   0  0  0  0  0  0  0  0  0  0  0  0
   -9.2296  -30.4981   24.6975 C   0  0  0  0  0  0  0  0  0  0  0  0
   -9.0861  -31.8293   24.7955 N   0  0  0  0  0  0  0  0  0  0  0  0
   -8.8224  -32.5139   23.5896 C   0  0  0  0  0  0  0  0  0  0  0  0
   -9.0241  -33.8910   23.3169 C   0  0  0  0  0  0  0  0  0  0  0  0
   -8.5288  -34.4359   22.1331 C   0  0  0  0  0  0  0  0  0  0  0  0
   -7.8389  -33.6259   21.2406 C   0  0  0  0  0  0  0  0  0  0  0  0
   -7.7029  -32.2507   21.4704 C   0  0  0  0  0  0  0  0  0  0  0  0
   -8.2855  -31.7050   22.6189 C   0  0  0  0  0  0  0  0  0  0  0  0
   -8.6115  -30.0918   23.0800 S   0  0  0  0  0  0  0  0  0  0  0  0
  -10.9376  -31.1993   23.1850 H   0  0  0  0  0  0  0  0  0  0  0  0
  -12.2466  -31.1338   24.3148 H   0  0  0  0  0  0  0  0  0  0  0  0
  -11.1007  -32.1171   24.7938 H   0  0  0  0  0  0  0  0  0  0  0  0
   -8.3344  -27.3215   27.3683 H   0  0  0  0  0  0  0  0  0  0  0  0
   -9.0579  -25.8335   29.2506 H   0  0  0  0  0  0  0  0  0  0  0  0
  -11.0136  -24.4571   30.3233 H   0  0  0  0  0  0  0  0  0  0  0  0
  -13.4637  -23.7358   29.2877 H   0  0  0  0  0  0  0  0  0  0  0  0
   -9.5039  -34.5272   24.0521 H   0  0  0  0  0  0  0  0  0  0  0  0
   -8.6378  -35.4980   21.9323 H   0  0  0  0  0  0  0  0  0  0  0  0
   -7.4015  -34.0537   20.3410 H   0  0  0  0  0  0  0  0  0  0  0  0
   -7.1793  -31.6203   20.7593 H   0  0  0  0  0  0  0  0  0  0  0  0
  1  2  1  0
  2  3  1  0
  3  4  2  0
  3  5  1  0
  5  6  1  0
  6  7  2  0
  7  8  1  0
  8  9  1  0
  9 10  2  0
 10 11  1  0
 11 12  2  0
 12 13  1  0
  2 14  1  0
 14 15  2  0
 15 16  1  0
 16 17  2  0
 17 18  1  0
 18 19  2  0
 19 20  1  0
 20 21  2  0
 21 22  1  0
 13  5  2  0
 22 14  1  0
 12  8  1  0
 21 16  1  0
  1 23  1  0
  1 24  1  0
  1 25  1  0
  6 26  1  0
  7 27  1  0
  9 28  1  0
 10 29  1  0
 17 30  1  0
 18 31  1  0
 19 32  1  0
 20 33  1  0
M  END
>  <Energy>  (1504) 
273.97384346957597

>  <compound_id>  (1504) 
32911

>  <target_id>  (1504) 
1

>  <reference_id>  (1504) 
107

>  <inspiration_ids>  (1504) 
[68, 107]

>  <energy_score>  (1504) 
104.23779416695868

>  <distance_score>  (1504) 
4.440210065541351

>  <path>  (1504) 
/opt/xchem-fragalysis-2/maxwin/BulkDock/SCRATCH/511017/C32911-P107/C32911-P107.minimised.mol

>  <scratch_subdir>  (1504) 
/opt/xchem-fragalysis-2/maxwin/BulkDock/SCRATCH/511017/C32911-P107

>  <fragmenstein_runtime>  (1504) 
5.048953056335449

>  <fragmenstein_outcome>  (1504) 
too moved

>  <fragmenstein_mode>  (1504) 
expansion

>  <fragmenstein_error>  (1504) 


$$$$
C32912-P68
     RDKit          3D

 37 40  0  0  0  0  0  0  0  0999 V2000
   -6.7263  -28.7250   23.3510 C   0  0  0  0  0  0  0  0  0  0  0  0
   -8.3929  -29.1488   23.4295 C   0  0  0  0  0  0  0  0  0  0  0  0
   -9.4358  -27.9847   24.8276 C   0  0  0  0  0  0  0  0  0  0  0  0
   -9.7042  -26.5593   25.3810 N   0  0  0  0  0  0  0  0  0  0  0  0
  -10.7935  -26.0808   26.0414 C   0  0  0  0  0  0  0  0  0  0  0  0
  -10.6744  -24.6438   26.5003 C   0  0  0  0  0  0  0  0  0  0  0  0
  -11.8177  -23.9604   26.3897 C   0  0  0  0  0  0  0  0  0  0  0  0
  -12.9485  -24.6874   26.0364 N   0  0  0  0  0  0  0  0  0  0  0  0
  -14.0645  -24.2989   25.3585 C   0  0  0  0  0  0  0  0  0  0  0  0
  -14.8539  -25.4372   25.2689 C   0  0  0  0  0  0  0  0  0  0  0  0
  -14.2335  -26.4964   25.8370 N   0  0  0  0  0  0  0  0  0  0  0  0
  -13.0127  -26.0743   26.0707 C   0  0  0  0  0  0  0  0  0  0  0  0
  -11.8740  -26.7954   26.0207 N   0  0  0  0  0  0  0  0  0  0  0  0
   -9.6428  -30.7297   23.0074 C   0  0  0  0  0  0  0  0  0  0  0  0
  -10.4185  -30.7493   21.8690 N   0  0  0  0  0  0  0  0  0  0  0  0
  -11.1241  -31.9204   21.5824 C   0  0  0  0  0  0  0  0  0  0  0  0
  -12.0079  -32.0925   20.5008 C   0  0  0  0  0  0  0  0  0  0  0  0
  -12.6380  -33.3250   20.2958 C   0  0  0  0  0  0  0  0  0  0  0  0
  -12.3983  -34.3902   21.1521 C   0  0  0  0  0  0  0  0  0  0  0  0
  -11.5278  -34.2416   22.2291 C   0  0  0  0  0  0  0  0  0  0  0  0
  -10.9096  -32.9929   22.4207 C   0  0  0  0  0  0  0  0  0  0  0  0
   -9.8221  -32.5677   23.6406 S   0  0  0  0  0  0  0  0  0  0  0  0
   -6.2396  -28.3513   24.2620 H   0  0  0  0  0  0  0  0  0  0  0  0
   -5.9853  -29.4654   23.4983 H   0  0  0  0  0  0  0  0  0  0  0  0
   -6.4748  -28.0448   22.5352 H   0  0  0  0  0  0  0  0  0  0  0  0
   -7.9006  -30.0435   23.8267 H   0  0  0  0  0  0  0  0  0  0  0  0
  -10.4479  -27.8133   24.5224 H   0  0  0  0  0  0  0  0  0  0  0  0
   -9.6767  -28.4745   25.7840 H   0  0  0  0  0  0  0  0  0  0  0  0
   -9.0503  -25.7831   25.2611 H   0  0  0  0  0  0  0  0  0  0  0  0
   -9.7253  -24.2500   26.8173 H   0  0  0  0  0  0  0  0  0  0  0  0
  -11.9194  -22.8959   26.5392 H   0  0  0  0  0  0  0  0  0  0  0  0
  -14.2230  -23.2689   25.0611 H   0  0  0  0  0  0  0  0  0  0  0  0
  -15.8659  -25.5161   24.8866 H   0  0  0  0  0  0  0  0  0  0  0  0
  -12.1743  -31.2689   19.8118 H   0  0  0  0  0  0  0  0  0  0  0  0
  -13.3062  -33.4473   19.4465 H   0  0  0  0  0  0  0  0  0  0  0  0
  -12.8860  -35.3464   20.9778 H   0  0  0  0  0  0  0  0  0  0  0  0
  -11.3305  -35.0714   22.9012 H   0  0  0  0  0  0  0  0  0  0  0  0
  1  2  1  0
  2  3  1  0
  3  4  1  0
  4  5  1  0
  5  6  1  0
  6  7  2  0
  7  8  1  0
  8  9  1  0
  9 10  2  0
 10 11  1  0
 11 12  2  0
 12 13  1  0
  2 14  1  0
 14 15  2  0
 15 16  1  0
 16 17  2  0
 17 18  1  0
 18 19  2  0
 19 20  1  0
 20 21  2  0
 21 22  1  0
 13  5  2  0
 22 14  1  0
 12  8  1  0
 21 16  1  0
  1 23  1  0
  1 24  1  0
  1 25  1  0
  2 26  1  0
  3 27  1  0
  3 28  1  0
  4 29  1  0
  6 30  1  0
  7 31  1  0
  9 32  1  0
 10 33  1  0
 17 34  1  0
 18 35  1  0
 19 36  1  0
 20 37  1  0
M  END
>  <Energy>  (1505) 
365.75872616145853

>  <compound_id>  (1505) 
32912

>  <target_id>  (1505) 
1

>  <reference_id>  (1505) 
68

>  <inspiration_ids>  (1505) 
[68, 107]

>  <energy_score>  (1505) 
263.8365679293688

>  <distance_score>  (1505) 
5.548908478566714

>  <path>  (1505) 
/opt/xchem-fragalysis-2/maxwin/BulkDock/SCRATCH/511017/C32912-P68/C32912-P68.minimised.mol

>  <scratch_subdir>  (1505) 
/opt/xchem-fragalysis-2/maxwin/BulkDock/SCRATCH/511017/C32912-P68

>  <fragmenstein_runtime>  (1505) 
7.2446205615997314

>  <fragmenstein_outcome>  (1505) 
too moved

>  <fragmenstein_mode>  (1505) 
expansion

>  <fragmenstein_error>  (1505) 


$$$$
C32912-P107
     RDKit          3D

 37 40  0  0  0  0  0  0  0  0999 V2000
   -9.3948  -29.7657   22.2736 C   0  0  0  0  0  0  0  0  0  0  0  0
   -9.3229  -30.3347   23.6757 C   0  0  0  0  0  0  0  0  0  0  0  0
   -9.7274  -29.5000   24.9787 C   0  0  0  0  0  0  0  0  0  0  0  0
  -10.4861  -28.0959   25.0511 N   0  0  0  0  0  0  0  0  0  0  0  0
  -10.7141  -27.1304   26.1123 C   0  0  0  0  0  0  0  0  0  0  0  0
   -9.7430  -26.8523   27.2447 C   0  0  0  0  0  0  0  0  0  0  0  0
  -10.0700  -26.0511   28.2587 C   0  0  0  0  0  0  0  0  0  0  0  0
  -11.2922  -25.4516   28.2324 N   0  0  0  0  0  0  0  0  0  0  0  0
  -11.8620  -24.6400   29.1658 C   0  0  0  0  0  0  0  0  0  0  0  0
  -13.1018  -24.3656   28.6617 C   0  0  0  0  0  0  0  0  0  0  0  0
  -13.2895  -24.9739   27.4388 N   0  0  0  0  0  0  0  0  0  0  0  0
  -12.1642  -25.6167   27.1646 C   0  0  0  0  0  0  0  0  0  0  0  0
  -11.8328  -26.4107   26.0802 N   0  0  0  0  0  0  0  0  0  0  0  0
   -9.8030  -31.7896   23.6341 C   0  0  0  0  0  0  0  0  0  0  0  0
  -10.8725  -32.2863   24.2225 N   0  0  0  0  0  0  0  0  0  0  0  0
  -11.0102  -33.6359   23.9044 C   0  0  0  0  0  0  0  0  0  0  0  0
  -12.0234  -34.4960   24.3739 C   0  0  0  0  0  0  0  0  0  0  0  0
  -12.0249  -35.8436   24.0017 C   0  0  0  0  0  0  0  0  0  0  0  0
  -11.0377  -36.3423   23.1592 C   0  0  0  0  0  0  0  0  0  0  0  0
  -10.0265  -35.5115   22.6719 C   0  0  0  0  0  0  0  0  0  0  0  0
  -10.0321  -34.1628   23.0617 C   0  0  0  0  0  0  0  0  0  0  0  0
   -8.9345  -32.9198   22.6379 S   0  0  0  0  0  0  0  0  0  0  0  0
  -10.0768  -30.3051   21.6058 H   0  0  0  0  0  0  0  0  0  0  0  0
   -8.4080  -29.7948   21.7979 H   0  0  0  0  0  0  0  0  0  0  0  0
   -9.7219  -28.7416   22.3208 H   0  0  0  0  0  0  0  0  0  0  0  0
   -8.2420  -30.4311   23.7995 H   0  0  0  0  0  0  0  0  0  0  0  0
   -8.7536  -29.2584   25.3894 H   0  0  0  0  0  0  0  0  0  0  0  0
  -10.2217  -30.2161   25.6388 H   0  0  0  0  0  0  0  0  0  0  0  0
  -11.3465  -28.1656   24.5089 H   0  0  0  0  0  0  0  0  0  0  0  0
   -8.7523  -27.2658   27.1956 H   0  0  0  0  0  0  0  0  0  0  0  0
   -9.4183  -25.8259   29.0887 H   0  0  0  0  0  0  0  0  0  0  0  0
  -11.3768  -24.3679   30.0918 H   0  0  0  0  0  0  0  0  0  0  0  0
  -13.8743  -23.7829   29.1418 H   0  0  0  0  0  0  0  0  0  0  0  0
  -12.7933  -34.1069   25.0322 H   0  0  0  0  0  0  0  0  0  0  0  0
  -12.8049  -36.5034   24.3747 H   0  0  0  0  0  0  0  0  0  0  0  0
  -11.0514  -37.3926   22.8748 H   0  0  0  0  0  0  0  0  0  0  0  0
   -9.2545  -35.8994   22.0140 H   0  0  0  0  0  0  0  0  0  0  0  0
  1  2  1  0
  2  3  1  0
  3  4  1  0
  4  5  1  0
  5  6  1  0
  6  7  2  0
  7  8  1  0
  8  9  1  0
  9 10  2  0
 10 11  1  0
 11 12  2  0
 12 13  1  0
  2 14  1  0
 14 15  2  0
 15 16  1  0
 16 17  2  0
 17 18  1  0
 18 19  2  0
 19 20  1  0
 20 21  2  0
 21 22  1  0
 13  5  2  0
 22 14  1  0
 12  8  1  0
 21 16  1  0
  1 23  1  0
  1 24  1  0
  1 25  1  0
  2 26  1  0
  3 27  1  0
  3 28  1  0
  4 29  1  0
  6 30  1  0
  7 31  1  0
  9 32  1  0
 10 33  1  0
 17 34  1  0
 18 35  1  0
 19 36  1  0
 20 37  1  0
M  END
>  <Energy>  (1506) 
59.884794237404151

>  <compound_id>  (1506) 
32912

>  <target_id>  (1506) 
1

>  <reference_id>  (1506) 
107

>  <inspiration_ids>  (1506) 
[68, 107]

>  <energy_score>  (1506) 
-42.037363994694346

>  <distance_score>  (1506) 
4.03920400835912

>  <path>  (1506) 
/opt/xchem-fragalysis-2/maxwin/BulkDock/SCRATCH/511017/C32912-P107/C32912-P107.minimised.mol

>  <scratch_subdir>  (1506) 
/opt/xchem-fragalysis-2/maxwin/BulkDock/SCRATCH/511017/C32912-P107

>  <fragmenstein_runtime>  (1506) 
4.046899318695068

>  <fragmenstein_outcome>  (1506) 
too moved

>  <fragmenstein_mode>  (1506) 
expansion

>  <fragmenstein_error>  (1506) 


$$$$
C6587-P127
     RDKit          3D

 39 42  0  0  0  0  0  0  0  0999 V2000
    5.7112   -3.2336   14.8106 O   0  0  0  0  0  0  0  0  0  0  0  0
    6.3378   -2.5896   14.0058 C   0  0  0  0  0  0  0  0  0  0  0  0
    5.9111   -2.2492   12.4016 N   0  0  0  0  0  0  0  0  0  0  0  0
    4.6576   -2.7719   11.5099 C   0  0  0  0  0  0  0  0  0  0  0  0
    5.1600   -3.8418   10.7491 C   0  0  0  0  0  0  0  0  0  0  0  0
    4.3882   -4.3096    9.7427 C   0  0  0  0  0  0  0  0  0  0  0  0
    3.5398   -3.3681    9.4430 N   0  0  0  0  0  0  0  0  0  0  0  0
    3.1021   -2.5860   10.8105 N   0  0  0  0  0  0  0  0  0  0  0  0
    1.5037   -1.5424   10.5833 C   0  0  0  0  0  0  0  0  0  0  0  0
   -0.4082   -1.0423   10.8595 C   0  0  0  0  0  0  0  0  0  0  0  0
   -1.9652   -1.1636    9.4723 C   0  0  0  0  0  0  0  0  0  0  0  0
   -1.1892   -1.5432    8.4613 C   0  0  0  0  0  0  0  0  0  0  0  0
    0.8041   -1.7799    9.1982 C   0  0  0  0  0  0  0  0  0  0  0  0
    7.7566   -2.1810   14.6237 C   0  0  0  0  0  0  0  0  0  0  0  0
    8.7164   -3.0985   14.7618 N   0  0  0  0  0  0  0  0  0  0  0  0
    9.8643   -2.4840   15.2023 C   0  0  0  0  0  0  0  0  0  0  0  0
   11.1920   -2.9291   15.2418 C   0  0  0  0  0  0  0  0  0  0  0  0
   12.1589   -2.0638   15.7611 C   0  0  0  0  0  0  0  0  0  0  0  0
   11.7985   -0.7987   16.2359 C   0  0  0  0  0  0  0  0  0  0  0  0
   10.4644   -0.3631   16.2406 C   0  0  0  0  0  0  0  0  0  0  0  0
    9.5318   -1.2529   15.7165 C   0  0  0  0  0  0  0  0  0  0  0  0
    8.1590   -1.2688   15.6347 N   0  0  0  0  0  0  0  0  0  0  0  0
    6.5987   -1.6136   11.9958 H   0  0  0  0  0  0  0  0  0  0  0  0
    6.1939   -4.1111   10.7345 H   0  0  0  0  0  0  0  0  0  0  0  0
    4.5828   -5.0982    9.0289 H   0  0  0  0  0  0  0  0  0  0  0  0
    2.0166   -0.7230   11.0840 H   0  0  0  0  0  0  0  0  0  0  0  0
   -1.0093   -1.1833   11.7904 H   0  0  0  0  0  0  0  0  0  0  0  0
   -0.3382   -0.3624   11.6946 H   0  0  0  0  0  0  0  0  0  0  0  0
   -2.7908   -1.8959    9.4303 H   0  0  0  0  0  0  0  0  0  0  0  0
   -2.5684   -0.2620    9.1881 H   0  0  0  0  0  0  0  0  0  0  0  0
   -1.8688   -2.3180    8.0460 H   0  0  0  0  0  0  0  0  0  0  0  0
   -1.4309   -0.9756    7.5165 H   0  0  0  0  0  0  0  0  0  0  0  0
    1.4085   -2.1959    8.3215 H   0  0  0  0  0  0  0  0  0  0  0  0
    1.3863   -0.7899    9.1651 H   0  0  0  0  0  0  0  0  0  0  0  0
   11.4495   -3.9128   14.8657 H   0  0  0  0  0  0  0  0  0  0  0  0
   13.1989   -2.3786   15.7926 H   0  0  0  0  0  0  0  0  0  0  0  0
   12.5714   -0.1423   16.6336 H   0  0  0  0  0  0  0  0  0  0  0  0
   10.1884    0.6056   16.6434 H   0  0  0  0  0  0  0  0  0  0  0  0
    7.5714   -0.5991   16.1111 H   0  0  0  0  0  0  0  0  0  0  0  0
  1  2  2  0
  2  3  1  0
  3  4  1  0
  4  5  2  0
  5  6  1  0
  6  7  2  0
  7  8  1  0
  8  9  1  0
  9 10  1  0
 10 11  1  0
 11 12  1  0
 12 13  1  0
  2 14  1  0
 14 15  2  0
 15 16  1  0
 16 17  2  0
 17 18  1  0
 18 19  2  0
 19 20  1  0
 20 21  2  0
 21 22  1  0
  8  4  1  0
 13  9  1  0
 22 14  1  0
 21 16  1  0
  3 23  1  0
  5 24  1  0
  6 25  1  0
  9 26  1  0
 10 27  1  0
 10 28  1  0
 11 29  1  0
 11 30  1  0
 12 31  1  0
 12 32  1  0
 13 33  1  0
 13 34  1  0
 17 35  1  0
 18 36  1  0
 19 37  1  0
 20 38  1  0
 22 39  1  0
M  END
>  <Energy>  (1507) 
819.63305648440667

>  <compound_id>  (1507) 
6587

>  <target_id>  (1507) 
1

>  <reference_id>  (1507) 
127

>  <inspiration_ids>  (1507) 
[127, 8]

>  <energy_score>  (1507) 
732.7174442321385

>  <distance_score>  (1507) 
9.28788656292714

>  <path>  (1507) 
/opt/xchem-fragalysis-2/maxwin/BulkDock/SCRATCH/511017/C6587-P127/C6587-P127.minimised.mol

>  <scratch_subdir>  (1507) 
/opt/xchem-fragalysis-2/maxwin/BulkDock/SCRATCH/511017/C6587-P127

>  <fragmenstein_runtime>  (1507) 
14.84282922744751

>  <fragmenstein_outcome>  (1507) 
too moved

>  <fragmenstein_mode>  (1507) 
expansion

>  <fragmenstein_error>  (1507) 


$$$$
C6587-P8
     RDKit          3D

 39 42  0  0  0  0  0  0  0  0999 V2000
    3.0477    1.2466   11.2495 O   0  0  0  0  0  0  0  0  0  0  0  0
    3.0772    0.0197   11.1706 C   0  0  0  0  0  0  0  0  0  0  0  0
    1.6848   -1.2305   10.7128 N   0  0  0  0  0  0  0  0  0  0  0  0
    0.0156   -0.9930   10.1655 C   0  0  0  0  0  0  0  0  0  0  0  0
   -1.0822   -1.0627   11.1366 C   0  0  0  0  0  0  0  0  0  0  0  0
   -2.2355   -0.0826    9.7522 C   0  0  0  0  0  0  0  0  0  0  0  0
   -1.9413   -0.0823    8.5146 N   0  0  0  0  0  0  0  0  0  0  0  0
   -1.5154   -1.2500    8.8904 N   0  0  0  0  0  0  0  0  0  0  0  0
   -3.1663   -1.9125    8.6728 C   0  0  0  0  0  0  0  0  0  0  0  0
   -4.4984   -0.8745    8.7617 C   0  0  0  0  0  0  0  0  0  0  0  0
   -5.7497   -1.3563    8.0255 C   0  0  0  0  0  0  0  0  0  0  0  0
   -5.2625   -2.5454    7.2699 C   0  0  0  0  0  0  0  0  0  0  0  0
   -3.7463   -2.3656    7.3560 C   0  0  0  0  0  0  0  0  0  0  0  0
    4.8080   -0.8874   11.4063 C   0  0  0  0  0  0  0  0  0  0  0  0
    5.1524   -2.2284   11.8023 N   0  0  0  0  0  0  0  0  0  0  0  0
    6.3726   -2.0001   12.7802 C   0  0  0  0  0  0  0  0  0  0  0  0
    6.6417   -2.4210   14.1153 C   0  0  0  0  0  0  0  0  0  0  0  0
    7.7134   -1.9645   14.9003 C   0  0  0  0  0  0  0  0  0  0  0  0
    8.5071   -0.9212   14.5517 C   0  0  0  0  0  0  0  0  0  0  0  0
    8.2112   -0.3725   13.2963 C   0  0  0  0  0  0  0  0  0  0  0  0
    7.1273   -0.9571   12.4117 C   0  0  0  0  0  0  0  0  0  0  0  0
    6.4718   -0.7662   11.1997 N   0  0  0  0  0  0  0  0  0  0  0  0
    2.0455   -2.1700   10.6545 H   0  0  0  0  0  0  0  0  0  0  0  0
   -1.2071   -0.6832   12.1555 H   0  0  0  0  0  0  0  0  0  0  0  0
   -3.2084    0.3717    9.8402 H   0  0  0  0  0  0  0  0  0  0  0  0
   -3.0598   -2.8411    9.1468 H   0  0  0  0  0  0  0  0  0  0  0  0
   -4.2877    0.0625    8.2395 H   0  0  0  0  0  0  0  0  0  0  0  0
   -4.7586   -0.5775    9.7567 H   0  0  0  0  0  0  0  0  0  0  0  0
   -6.5952   -1.5583    8.6843 H   0  0  0  0  0  0  0  0  0  0  0  0
   -6.0956   -0.5777    7.3333 H   0  0  0  0  0  0  0  0  0  0  0  0
   -5.6634   -2.5523    6.2559 H   0  0  0  0  0  0  0  0  0  0  0  0
   -5.5927   -3.5038    7.6462 H   0  0  0  0  0  0  0  0  0  0  0  0
   -3.3185   -3.3341    7.1549 H   0  0  0  0  0  0  0  0  0  0  0  0
   -3.6418   -1.4696    6.7485 H   0  0  0  0  0  0  0  0  0  0  0  0
    5.9224   -3.0371   14.6227 H   0  0  0  0  0  0  0  0  0  0  0  0
    7.8593   -2.4195   15.8320 H   0  0  0  0  0  0  0  0  0  0  0  0
    9.3314   -0.5613   15.1514 H   0  0  0  0  0  0  0  0  0  0  0  0
    8.9063    0.3999   12.9929 H   0  0  0  0  0  0  0  0  0  0  0  0
    6.7099   -0.0424   10.5467 H   0  0  0  0  0  0  0  0  0  0  0  0
  1  2  2  0
  2  3  1  0
  3  4  1  0
  4  5  2  0
  5  6  1  0
  6  7  2  0
  7  8  1  0
  8  9  1  0
  9 10  1  0
 10 11  1  0
 11 12  1  0
 12 13  1  0
  2 14  1  0
 14 15  2  0
 15 16  1  0
 16 17  2  0
 17 18  1  0
 18 19  2  0
 19 20  1  0
 20 21  2  0
 21 22  1  0
  8  4  1  0
 13  9  1  0
 22 14  1  0
 21 16  1  0
  3 23  1  0
  5 24  1  0
  6 25  1  0
  9 26  1  0
 10 27  1  0
 10 28  1  0
 11 29  1  0
 11 30  1  0
 12 31  1  0
 12 32  1  0
 13 33  1  0
 13 34  1  0
 17 35  1  0
 18 36  1  0
 19 37  1  0
 20 38  1  0
 22 39  1  0
M  END
>  <Energy>  (1508) 
886.62644703693275

>  <compound_id>  (1508) 
6587

>  <target_id>  (1508) 
1

>  <reference_id>  (1508) 
8

>  <inspiration_ids>  (1508) 
[127, 8]

>  <energy_score>  (1508) 
799.7108347846636

>  <distance_score>  (1508) 
7.360410733130953

>  <path>  (1508) 
/opt/xchem-fragalysis-2/maxwin/BulkDock/SCRATCH/511017/C6587-P8/C6587-P8.minimised.mol

>  <scratch_subdir>  (1508) 
/opt/xchem-fragalysis-2/maxwin/BulkDock/SCRATCH/511017/C6587-P8

>  <fragmenstein_runtime>  (1508) 
12.297322273254395

>  <fragmenstein_outcome>  (1508) 
too moved

>  <fragmenstein_mode>  (1508) 
expansion

>  <fragmenstein_error>  (1508) 


$$$$
C6590-P127
     RDKit          3D

 43 46  0  0  0  0  0  0  0  0999 V2000
    1.5920   -1.5266    9.1925 O   0  0  0  0  0  0  0  0  0  0  0  0
    1.0769   -1.1470   10.1284 C   0  0  0  0  0  0  0  0  0  0  0  0
    2.2264   -0.5044   11.6163 C   0  0  0  0  0  0  0  0  0  0  0  0
    4.3498    0.4136   11.4518 S   0  0  0  0  0  0  0  0  0  0  0  0
    5.9550   -0.9890   12.5169 C   0  0  0  0  0  0  0  0  0  0  0  0
    6.2304   -1.8957   13.6222 N   0  0  0  0  0  0  0  0  0  0  0  0
    7.5468   -1.9494   14.1473 C   0  0  0  0  0  0  0  0  0  0  0  0
    8.2643   -2.6020   15.1433 C   0  0  0  0  0  0  0  0  0  0  0  0
    9.5721   -2.1475   15.5164 C   0  0  0  0  0  0  0  0  0  0  0  0
   10.1505   -0.9985   15.0072 C   0  0  0  0  0  0  0  0  0  0  0  0
    9.4865   -0.3359   13.9962 C   0  0  0  0  0  0  0  0  0  0  0  0
    8.1578   -0.8357   13.6061 C   0  0  0  0  0  0  0  0  0  0  0  0
    7.3649   -0.9296   12.2888 N   0  0  0  0  0  0  0  0  0  0  0  0
   -0.3275   -0.9772   10.3283 N   0  0  0  0  0  0  0  0  0  0  0  0
   -1.8147   -1.1764    9.1284 C   0  0  0  0  0  0  0  0  0  0  0  0
   -3.2852   -1.0140    9.2369 C   0  0  0  0  0  0  0  0  0  0  0  0
   -3.9250   -1.8024    8.2407 C   0  0  0  0  0  0  0  0  0  0  0  0
   -2.9622   -2.1571    7.4236 N   0  0  0  0  0  0  0  0  0  0  0  0
   -2.2175   -1.0181    7.6118 N   0  0  0  0  0  0  0  0  0  0  0  0
   -3.0782    0.1628    6.9710 C   0  0  0  0  0  0  0  0  0  0  0  0
   -4.2810    0.9556    7.6080 C   0  0  0  0  0  0  0  0  0  0  0  0
   -5.2507    1.2718    6.4760 C   0  0  0  0  0  0  0  0  0  0  0  0
   -5.1675    0.0458    5.6010 C   0  0  0  0  0  0  0  0  0  0  0  0
   -3.6752   -0.2543    5.5650 C   0  0  0  0  0  0  0  0  0  0  0  0
    1.6864   -0.6133   12.5776 H   0  0  0  0  0  0  0  0  0  0  0  0
    2.1376    0.5897   11.7446 H   0  0  0  0  0  0  0  0  0  0  0  0
    7.8212   -3.4869   15.5478 H   0  0  0  0  0  0  0  0  0  0  0  0
   10.2157   -2.7274   16.1706 H   0  0  0  0  0  0  0  0  0  0  0  0
   11.1628   -0.7168   15.2799 H   0  0  0  0  0  0  0  0  0  0  0  0
   10.0143    0.3757   13.3678 H   0  0  0  0  0  0  0  0  0  0  0  0
    7.7679   -0.5693   11.4480 H   0  0  0  0  0  0  0  0  0  0  0  0
   -0.4894   -0.7038   11.3010 H   0  0  0  0  0  0  0  0  0  0  0  0
   -3.8610   -0.5161    9.9914 H   0  0  0  0  0  0  0  0  0  0  0  0
   -4.9599   -2.0370    8.0251 H   0  0  0  0  0  0  0  0  0  0  0  0
   -2.3414    0.9313    7.0034 H   0  0  0  0  0  0  0  0  0  0  0  0
   -4.8758    0.4289    8.3495 H   0  0  0  0  0  0  0  0  0  0  0  0
   -3.9188    1.8850    8.0589 H   0  0  0  0  0  0  0  0  0  0  0  0
   -6.2661    1.4493    6.8436 H   0  0  0  0  0  0  0  0  0  0  0  0
   -4.9358    2.1662    5.9311 H   0  0  0  0  0  0  0  0  0  0  0  0
   -5.7197   -0.7880    6.0480 H   0  0  0  0  0  0  0  0  0  0  0  0
   -5.5759    0.2216    4.6014 H   0  0  0  0  0  0  0  0  0  0  0  0
   -3.2489    0.3263    4.7450 H   0  0  0  0  0  0  0  0  0  0  0  0
   -3.5212   -1.2980    5.2918 H   0  0  0  0  0  0  0  0  0  0  0  0
  1  2  2  0
  2  3  1  0
  3  4  1  0
  4  5  1  0
  5  6  2  0
  6  7  1  0
  7  8  2  0
  8  9  1  0
  9 10  2  0
 10 11  1  0
 11 12  2  0
 12 13  1  0
  2 14  1  0
 14 15  1  0
 15 16  2  0
 16 17  1  0
 17 18  2  0
 18 19  1  0
 19 20  1  0
 20 21  1  0
 21 22  1  0
 22 23  1  0
 23 24  1  0
 13  5  1  0
 19 15  1  0
 24 20  1  0
 12  7  1  0
  3 25  1  0
  3 26  1  0
  8 27  1  0
  9 28  1  0
 10 29  1  0
 11 30  1  0
 13 31  1  0
 14 32  1  0
 16 33  1  0
 17 34  1  0
 20 35  1  0
 21 36  1  0
 21 37  1  0
 22 38  1  0
 22 39  1  0
 23 40  1  0
 23 41  1  0
 24 42  1  0
 24 43  1  0
M  END
>  <Energy>  (1509) 
606.86429968918287

>  <compound_id>  (1509) 
6590

>  <target_id>  (1509) 
1

>  <reference_id>  (1509) 
127

>  <inspiration_ids>  (1509) 
[127, 8]

>  <energy_score>  (1509) 
518.3651209266181

>  <distance_score>  (1509) 
6.214997895010058

>  <path>  (1509) 
/opt/xchem-fragalysis-2/maxwin/BulkDock/SCRATCH/511017/C6590-P127/C6590-P127.minimised.mol

>  <scratch_subdir>  (1509) 
/opt/xchem-fragalysis-2/maxwin/BulkDock/SCRATCH/511017/C6590-P127

>  <fragmenstein_runtime>  (1509) 
13.65075135231018

>  <fragmenstein_outcome>  (1509) 
too moved

>  <fragmenstein_mode>  (1509) 
expansion

>  <fragmenstein_error>  (1509) 


$$$$
C6590-P8
     RDKit          3D

 43 46  0  0  0  0  0  0  0  0999 V2000
    2.3825    2.0171    8.1227 O   0  0  0  0  0  0  0  0  0  0  0  0
    2.0991    2.7025    9.0910 C   0  0  0  0  0  0  0  0  0  0  0  0
    3.4421    2.5548   10.3969 C   0  0  0  0  0  0  0  0  0  0  0  0
    4.0164    0.5245   10.9455 S   0  0  0  0  0  0  0  0  0  0  0  0
    5.7715   -0.6821   11.8702 C   0  0  0  0  0  0  0  0  0  0  0  0
    6.0804   -1.8530   12.5876 N   0  0  0  0  0  0  0  0  0  0  0  0
    7.1658   -1.6351   13.3678 C   0  0  0  0  0  0  0  0  0  0  0  0
    7.6153   -2.0609   14.6251 C   0  0  0  0  0  0  0  0  0  0  0  0
    8.6335   -1.3255   15.2898 C   0  0  0  0  0  0  0  0  0  0  0  0
    9.3160   -0.2616   14.7482 C   0  0  0  0  0  0  0  0  0  0  0  0
    8.9697    0.1092   13.4696 C   0  0  0  0  0  0  0  0  0  0  0  0
    7.7995   -0.5609   12.7942 C   0  0  0  0  0  0  0  0  0  0  0  0
    7.1407   -0.6265   11.5099 N   0  0  0  0  0  0  0  0  0  0  0  0
    0.6763    3.5879    9.3876 N   0  0  0  0  0  0  0  0  0  0  0  0
   -0.8171    3.6844    8.4830 C   0  0  0  0  0  0  0  0  0  0  0  0
   -1.4621    4.8969    8.2541 C   0  0  0  0  0  0  0  0  0  0  0  0
   -2.8563    4.6916    8.1131 C   0  0  0  0  0  0  0  0  0  0  0  0
   -3.3252    3.4586    8.2669 N   0  0  0  0  0  0  0  0  0  0  0  0
   -2.2129    2.6117    8.5231 N   0  0  0  0  0  0  0  0  0  0  0  0
   -2.7090    0.8705    8.9316 C   0  0  0  0  0  0  0  0  0  0  0  0
   -2.6320   -0.4763    8.0127 C   0  0  0  0  0  0  0  0  0  0  0  0
   -4.0153   -0.7924    7.2905 C   0  0  0  0  0  0  0  0  0  0  0  0
   -5.0684   -0.1430    8.1599 C   0  0  0  0  0  0  0  0  0  0  0  0
   -4.1464    0.0024    9.3253 C   0  0  0  0  0  0  0  0  0  0  0  0
    4.3458    2.9951    9.9697 H   0  0  0  0  0  0  0  0  0  0  0  0
    3.1202    3.0416   11.3178 H   0  0  0  0  0  0  0  0  0  0  0  0
    7.0970   -2.8683   15.0938 H   0  0  0  0  0  0  0  0  0  0  0  0
    8.9374   -1.5593   16.2785 H   0  0  0  0  0  0  0  0  0  0  0  0
   10.1320    0.2239   15.2712 H   0  0  0  0  0  0  0  0  0  0  0  0
    9.5984    0.8430   12.9691 H   0  0  0  0  0  0  0  0  0  0  0  0
    7.4402   -0.1448   10.6754 H   0  0  0  0  0  0  0  0  0  0  0  0
    0.7795    4.1226   10.2460 H   0  0  0  0  0  0  0  0  0  0  0  0
   -0.9679    5.8567    8.2566 H   0  0  0  0  0  0  0  0  0  0  0  0
   -3.5817    5.4721    7.9209 H   0  0  0  0  0  0  0  0  0  0  0  0
   -3.5909    1.4980    8.8567 H   0  0  0  0  0  0  0  0  0  0  0  0
   -2.4463   -1.3233    8.6853 H   0  0  0  0  0  0  0  0  0  0  0  0
   -1.7783   -0.7494    7.4815 H   0  0  0  0  0  0  0  0  0  0  0  0
   -4.0694   -0.3729    6.2916 H   0  0  0  0  0  0  0  0  0  0  0  0
   -4.1738   -1.8762    7.2477 H   0  0  0  0  0  0  0  0  0  0  0  0
   -5.4461    0.8073    7.7759 H   0  0  0  0  0  0  0  0  0  0  0  0
   -5.9160   -0.8084    8.3487 H   0  0  0  0  0  0  0  0  0  0  0  0
   -4.0115   -1.0833    9.4330 H   0  0  0  0  0  0  0  0  0  0  0  0
   -4.3372   -0.0468   10.3625 H   0  0  0  0  0  0  0  0  0  0  0  0
  1  2  2  0
  2  3  1  0
  3  4  1  0
  4  5  1  0
  5  6  2  0
  6  7  1  0
  7  8  2  0
  8  9  1  0
  9 10  2  0
 10 11  1  0
 11 12  2  0
 12 13  1  0
  2 14  1  0
 14 15  1  0
 15 16  2  0
 16 17  1  0
 17 18  2  0
 18 19  1  0
 19 20  1  0
 20 21  1  0
 21 22  1  0
 22 23  1  0
 23 24  1  0
 13  5  1  0
 19 15  1  0
 24 20  1  0
 12  7  1  0
  3 25  1  0
  3 26  1  0
  8 27  1  0
  9 28  1  0
 10 29  1  0
 11 30  1  0
 13 31  1  0
 14 32  1  0
 16 33  1  0
 17 34  1  0
 20 35  1  0
 21 36  1  0
 21 37  1  0
 22 38  1  0
 22 39  1  0
 23 40  1  0
 23 41  1  0
 24 42  1  0
 24 43  1  0
M  END
>  <Energy>  (1510) 
681.00711366755149

>  <compound_id>  (1510) 
6590

>  <target_id>  (1510) 
1

>  <reference_id>  (1510) 
8

>  <inspiration_ids>  (1510) 
[127, 8]

>  <energy_score>  (1510) 
592.5079349049901

>  <distance_score>  (1510) 
7.056274458991232

>  <path>  (1510) 
/opt/xchem-fragalysis-2/maxwin/BulkDock/SCRATCH/511017/C6590-P8/C6590-P8.minimised.mol

>  <scratch_subdir>  (1510) 
/opt/xchem-fragalysis-2/maxwin/BulkDock/SCRATCH/511017/C6590-P8

>  <fragmenstein_runtime>  (1510) 
13.432324886322021

>  <fragmenstein_outcome>  (1510) 
too moved

>  <fragmenstein_mode>  (1510) 
expansion

>  <fragmenstein_error>  (1510) 


$$$$
C6592-P127
     RDKit          3D

 45 48  0  0  0  0  0  0  0  0999 V2000
   -0.8284    2.0152   13.4523 O   0  0  0  0  0  0  0  0  0  0  0  0
    0.0481    1.1376   13.5637 C   0  0  0  0  0  0  0  0  0  0  0  0
    1.0910    1.5583   14.6669 C   0  0  0  0  0  0  0  0  0  0  0  0
    2.1686    2.5970   14.2380 C   0  0  0  0  0  0  0  0  0  0  0  0
    2.8760    3.4536   15.3149 C   0  0  0  0  0  0  0  0  0  0  0  0
    3.7530    4.4215   15.0514 N   0  0  0  0  0  0  0  0  0  0  0  0
    4.6619    4.3940   16.0962 C   0  0  0  0  0  0  0  0  0  0  0  0
    5.9767    4.8908   16.1666 C   0  0  0  0  0  0  0  0  0  0  0  0
    6.7832    4.5353   17.2599 C   0  0  0  0  0  0  0  0  0  0  0  0
    6.2742    3.7545   18.2995 C   0  0  0  0  0  0  0  0  0  0  0  0
    4.9473    3.3032   18.2798 C   0  0  0  0  0  0  0  0  0  0  0  0
    4.1818    3.6132   17.1422 C   0  0  0  0  0  0  0  0  0  0  0  0
    2.9594    3.1443   16.6673 N   0  0  0  0  0  0  0  0  0  0  0  0
    0.2635   -0.3503   12.5683 N   0  0  0  0  0  0  0  0  0  0  0  0
   -0.6501   -0.9378   11.0398 C   0  0  0  0  0  0  0  0  0  0  0  0
   -1.6178    0.0058   11.5551 C   0  0  0  0  0  0  0  0  0  0  0  0
   -2.9491   -0.0820    9.9472 C   0  0  0  0  0  0  0  0  0  0  0  0
   -2.3567   -0.1438    8.8042 N   0  0  0  0  0  0  0  0  0  0  0  0
   -1.7212   -1.2172    9.3762 N   0  0  0  0  0  0  0  0  0  0  0  0
   -2.9889   -2.0624    8.6285 C   0  0  0  0  0  0  0  0  0  0  0  0
   -2.7937   -1.9945    7.1298 C   0  0  0  0  0  0  0  0  0  0  0  0
   -3.7646   -1.1971    6.2405 C   0  0  0  0  0  0  0  0  0  0  0  0
   -4.6405   -0.4786    7.1915 C   0  0  0  0  0  0  0  0  0  0  0  0
   -4.5787   -1.4681    8.3374 C   0  0  0  0  0  0  0  0  0  0  0  0
    0.4537    2.1549   15.3488 H   0  0  0  0  0  0  0  0  0  0  0  0
    1.3268    0.7776   15.3781 H   0  0  0  0  0  0  0  0  0  0  0  0
    2.9248    2.0894   13.6299 H   0  0  0  0  0  0  0  0  0  0  0  0
    1.6901    3.3147   13.5574 H   0  0  0  0  0  0  0  0  0  0  0  0
    6.3688    5.4745   15.3419 H   0  0  0  0  0  0  0  0  0  0  0  0
    7.8115    4.8846   17.2959 H   0  0  0  0  0  0  0  0  0  0  0  0
    6.9127    3.5031   19.1430 H   0  0  0  0  0  0  0  0  0  0  0  0
    4.5532    2.6836   19.0776 H   0  0  0  0  0  0  0  0  0  0  0  0
    2.4285    2.4107   17.1085 H   0  0  0  0  0  0  0  0  0  0  0  0
    1.1127   -0.8249   12.8448 H   0  0  0  0  0  0  0  0  0  0  0  0
   -1.9345    0.3870   12.4937 H   0  0  0  0  0  0  0  0  0  0  0  0
   -4.0095    0.1158   10.0393 H   0  0  0  0  0  0  0  0  0  0  0  0
   -2.8972   -3.0795    8.9151 H   0  0  0  0  0  0  0  0  0  0  0  0
   -3.0297   -3.0459    6.8961 H   0  0  0  0  0  0  0  0  0  0  0  0
   -1.8024   -1.5994    6.9240 H   0  0  0  0  0  0  0  0  0  0  0  0
   -3.2687   -0.5228    5.5431 H   0  0  0  0  0  0  0  0  0  0  0  0
   -4.3467   -1.8914    5.6199 H   0  0  0  0  0  0  0  0  0  0  0  0
   -5.6577   -0.3564    6.8058 H   0  0  0  0  0  0  0  0  0  0  0  0
   -4.2652    0.5158    7.4450 H   0  0  0  0  0  0  0  0  0  0  0  0
   -5.1718   -2.3111    7.9509 H   0  0  0  0  0  0  0  0  0  0  0  0
   -5.1461   -1.0405    9.1413 H   0  0  0  0  0  0  0  0  0  0  0  0
  1  2  2  0
  2  3  1  0
  3  4  1  0
  4  5  1  0
  5  6  2  0
  6  7  1  0
  7  8  2  0
  8  9  1  0
  9 10  2  0
 10 11  1  0
 11 12  2  0
 12 13  1  0
  2 14  1  0
 14 15  1  0
 15 16  2  0
 16 17  1  0
 17 18  2  0
 18 19  1  0
 19 20  1  0
 20 21  1  0
 21 22  1  0
 22 23  1  0
 23 24  1  0
 13  5  1  0
 19 15  1  0
 24 20  1  0
 12  7  1  0
  3 25  1  0
  3 26  1  0
  4 27  1  0
  4 28  1  0
  8 29  1  0
  9 30  1  0
 10 31  1  0
 11 32  1  0
 13 33  1  0
 14 34  1  0
 16 35  1  0
 17 36  1  0
 20 37  1  0
 21 38  1  0
 21 39  1  0
 22 40  1  0
 22 41  1  0
 23 42  1  0
 23 43  1  0
 24 44  1  0
 24 45  1  0
M  END
>  <Energy>  (1511) 
750.73598759022843

>  <compound_id>  (1511) 
6592

>  <target_id>  (1511) 
1

>  <reference_id>  (1511) 
127

>  <inspiration_ids>  (1511) 
[127, 8]

>  <energy_score>  (1511) 
694.0415817240663

>  <distance_score>  (1511) 
8.670625401883823

>  <path>  (1511) 
/opt/xchem-fragalysis-2/maxwin/BulkDock/SCRATCH/511017/C6592-P127/C6592-P127.minimised.mol

>  <scratch_subdir>  (1511) 
/opt/xchem-fragalysis-2/maxwin/BulkDock/SCRATCH/511017/C6592-P127

>  <fragmenstein_runtime>  (1511) 
14.862730741500854

>  <fragmenstein_outcome>  (1511) 
too moved

>  <fragmenstein_mode>  (1511) 
expansion

>  <fragmenstein_error>  (1511) 


$$$$
C6592-P8
     RDKit          3D

 45 48  0  0  0  0  0  0  0  0999 V2000
    1.4279   -2.0746    9.1103 O   0  0  0  0  0  0  0  0  0  0  0  0
    1.1159   -1.4604   10.0403 C   0  0  0  0  0  0  0  0  0  0  0  0
    2.3692   -0.7518   11.4323 C   0  0  0  0  0  0  0  0  0  0  0  0
    4.3704   -0.2990   11.2444 C   0  0  0  0  0  0  0  0  0  0  0  0
    5.9719   -0.9569   12.1905 C   0  0  0  0  0  0  0  0  0  0  0  0
    6.3130   -1.9462   13.1144 N   0  0  0  0  0  0  0  0  0  0  0  0
    7.4795   -1.6302   13.7671 C   0  0  0  0  0  0  0  0  0  0  0  0
    8.1657   -2.0752   14.8959 C   0  0  0  0  0  0  0  0  0  0  0  0
    9.3422   -1.4055   15.3445 C   0  0  0  0  0  0  0  0  0  0  0  0
    9.8208   -0.2468   14.7738 C   0  0  0  0  0  0  0  0  0  0  0  0
    9.2090    0.1873   13.6159 C   0  0  0  0  0  0  0  0  0  0  0  0
    8.0039   -0.5159   13.1169 C   0  0  0  0  0  0  0  0  0  0  0  0
    7.2745   -0.6708   11.8824 N   0  0  0  0  0  0  0  0  0  0  0  0
   -0.0625   -0.9823   10.3753 N   0  0  0  0  0  0  0  0  0  0  0  0
   -1.7296   -0.9424    9.4330 C   0  0  0  0  0  0  0  0  0  0  0  0
   -2.9814   -0.1522    9.4376 C   0  0  0  0  0  0  0  0  0  0  0  0
   -2.4332    0.5154    8.5475 C   0  0  0  0  0  0  0  0  0  0  0  0
   -2.3200   -0.4345    7.5970 N   0  0  0  0  0  0  0  0  0  0  0  0
   -2.5426   -1.5574    8.2175 N   0  0  0  0  0  0  0  0  0  0  0  0
   -4.0706   -1.8029    8.0366 C   0  0  0  0  0  0  0  0  0  0  0  0
   -4.5622   -3.0061    7.2479 C   0  0  0  0  0  0  0  0  0  0  0  0
   -6.0630   -2.8549    6.9769 C   0  0  0  0  0  0  0  0  0  0  0  0
   -6.3924   -1.4179    7.3396 C   0  0  0  0  0  0  0  0  0  0  0  0
   -5.0451   -0.7080    7.4537 C   0  0  0  0  0  0  0  0  0  0  0  0
    2.5872    0.1846   10.7711 H   0  0  0  0  0  0  0  0  0  0  0  0
    1.8687   -0.4328   12.3810 H   0  0  0  0  0  0  0  0  0  0  0  0
    4.6016    0.1998   10.3084 H   0  0  0  0  0  0  0  0  0  0  0  0
    4.1577    0.7969   11.5624 H   0  0  0  0  0  0  0  0  0  0  0  0
    7.8213   -2.9937   15.3196 H   0  0  0  0  0  0  0  0  0  0  0  0
   10.0067   -1.8453   16.0711 H   0  0  0  0  0  0  0  0  0  0  0  0
   10.7490    0.2041   15.1103 H   0  0  0  0  0  0  0  0  0  0  0  0
    9.7194    0.9417   13.0228 H   0  0  0  0  0  0  0  0  0  0  0  0
    7.5059   -0.2660   10.9864 H   0  0  0  0  0  0  0  0  0  0  0  0
    0.0108   -0.5706   11.3073 H   0  0  0  0  0  0  0  0  0  0  0  0
   -3.8170    0.0401   10.0767 H   0  0  0  0  0  0  0  0  0  0  0  0
   -2.3013    1.5930    8.5430 H   0  0  0  0  0  0  0  0  0  0  0  0
   -4.4092   -1.8135    9.0552 H   0  0  0  0  0  0  0  0  0  0  0  0
   -4.1850   -3.9458    7.6272 H   0  0  0  0  0  0  0  0  0  0  0  0
   -4.2043   -2.9998    6.2580 H   0  0  0  0  0  0  0  0  0  0  0  0
   -6.2752   -3.0305    5.9147 H   0  0  0  0  0  0  0  0  0  0  0  0
   -6.6879   -3.5767    7.5042 H   0  0  0  0  0  0  0  0  0  0  0  0
   -6.9111   -1.3850    8.3045 H   0  0  0  0  0  0  0  0  0  0  0  0
   -7.0429   -0.9420    6.5995 H   0  0  0  0  0  0  0  0  0  0  0  0
   -5.1692    0.1640    8.1025 H   0  0  0  0  0  0  0  0  0  0  0  0
   -4.7246   -0.3370    6.4806 H   0  0  0  0  0  0  0  0  0  0  0  0
  1  2  2  0
  2  3  1  0
  3  4  1  0
  4  5  1  0
  5  6  2  0
  6  7  1  0
  7  8  2  0
  8  9  1  0
  9 10  2  0
 10 11  1  0
 11 12  2  0
 12 13  1  0
  2 14  1  0
 14 15  1  0
 15 16  2  0
 16 17  1  0
 17 18  2  0
 18 19  1  0
 19 20  1  0
 20 21  1  0
 21 22  1  0
 22 23  1  0
 23 24  1  0
 13  5  1  0
 19 15  1  0
 24 20  1  0
 12  7  1  0
  3 25  1  0
  3 26  1  0
  4 27  1  0
  4 28  1  0
  8 29  1  0
  9 30  1  0
 10 31  1  0
 11 32  1  0
 13 33  1  0
 14 34  1  0
 16 35  1  0
 17 36  1  0
 20 37  1  0
 21 38  1  0
 21 39  1  0
 22 40  1  0
 22 41  1  0
 23 42  1  0
 23 43  1  0
 24 44  1  0
 24 45  1  0
M  END
>  <Energy>  (1512) 
620.71358972106452

>  <compound_id>  (1512) 
6592

>  <target_id>  (1512) 
1

>  <reference_id>  (1512) 
8

>  <inspiration_ids>  (1512) 
[127, 8]

>  <energy_score>  (1512) 
564.0191838548903

>  <distance_score>  (1512) 
6.665647805614682

>  <path>  (1512) 
/opt/xchem-fragalysis-2/maxwin/BulkDock/SCRATCH/511017/C6592-P8/C6592-P8.minimised.mol

>  <scratch_subdir>  (1512) 
/opt/xchem-fragalysis-2/maxwin/BulkDock/SCRATCH/511017/C6592-P8

>  <fragmenstein_runtime>  (1512) 
11.764623880386353

>  <fragmenstein_outcome>  (1512) 
too moved

>  <fragmenstein_mode>  (1512) 
expansion

>  <fragmenstein_error>  (1512) 


$$$$
C6593-P127
     RDKit          3D

 39 42  0  0  0  0  0  0  0  0999 V2000
    0.9618   -1.0200   12.8352 O   0  0  0  0  0  0  0  0  0  0  0  0
    1.0881   -0.6746   11.6692 C   0  0  0  0  0  0  0  0  0  0  0  0
    2.5897    0.1276   11.0177 N   0  0  0  0  0  0  0  0  0  0  0  0
    4.2192    0.4671   11.7705 C   0  0  0  0  0  0  0  0  0  0  0  0
    5.1547   -0.8075   11.7665 N   0  0  0  0  0  0  0  0  0  0  0  0
    6.6194   -1.5363   12.7304 C   0  0  0  0  0  0  0  0  0  0  0  0
    7.3106   -2.5403   13.5796 C   0  0  0  0  0  0  0  0  0  0  0  0
    8.2521   -2.3735   14.6760 C   0  0  0  0  0  0  0  0  0  0  0  0
    7.7190   -1.7303   15.6968 C   0  0  0  0  0  0  0  0  0  0  0  0
    6.3956   -1.4737   15.4603 C   0  0  0  0  0  0  0  0  0  0  0  0
    6.0763   -1.2919   13.9203 C   0  0  0  0  0  0  0  0  0  0  0  0
    5.6129   -0.3675   12.8084 N   0  0  0  0  0  0  0  0  0  0  0  0
   -0.1657   -0.9633   10.0273 C   0  0  0  0  0  0  0  0  0  0  0  0
   -1.4445   -0.9327    8.6552 C   0  0  0  0  0  0  0  0  0  0  0  0
   -2.5136    0.2214    8.3764 C   0  0  0  0  0  0  0  0  0  0  0  0
   -3.0126   -0.1291    9.5128 N   0  0  0  0  0  0  0  0  0  0  0  0
   -2.0297   -1.3165    9.3973 N   0  0  0  0  0  0  0  0  0  0  0  0
   -3.1822   -2.0842    8.1221 C   0  0  0  0  0  0  0  0  0  0  0  0
   -3.2611   -1.6597    6.5629 C   0  0  0  0  0  0  0  0  0  0  0  0
   -4.3632   -0.7006    6.1019 C   0  0  0  0  0  0  0  0  0  0  0  0
   -5.2100   -0.4939    7.2970 C   0  0  0  0  0  0  0  0  0  0  0  0
   -4.7504   -1.6000    8.2341 C   0  0  0  0  0  0  0  0  0  0  0  0
    2.4286    0.3979   10.0618 H   0  0  0  0  0  0  0  0  0  0  0  0
    6.5312   -3.2204   14.0641 H   0  0  0  0  0  0  0  0  0  0  0  0
    9.2923   -2.6592   14.6369 H   0  0  0  0  0  0  0  0  0  0  0  0
    8.2749   -1.3988   16.5498 H   0  0  0  0  0  0  0  0  0  0  0  0
    5.8378   -0.9644   16.2366 H   0  0  0  0  0  0  0  0  0  0  0  0
    5.8181    0.5451   12.9839 H   0  0  0  0  0  0  0  0  0  0  0  0
   -1.2412   -1.3726    7.6229 H   0  0  0  0  0  0  0  0  0  0  0  0
   -2.9146    0.8148    7.5737 H   0  0  0  0  0  0  0  0  0  0  0  0
   -2.9967   -3.1306    8.3098 H   0  0  0  0  0  0  0  0  0  0  0  0
   -3.5951   -2.5871    6.0710 H   0  0  0  0  0  0  0  0  0  0  0  0
   -2.3557   -1.2512    6.1377 H   0  0  0  0  0  0  0  0  0  0  0  0
   -4.9350   -1.1444    5.2776 H   0  0  0  0  0  0  0  0  0  0  0  0
   -3.9646    0.2425    5.7166 H   0  0  0  0  0  0  0  0  0  0  0  0
   -6.2772   -0.5852    7.0651 H   0  0  0  0  0  0  0  0  0  0  0  0
   -5.0823    0.5027    7.7288 H   0  0  0  0  0  0  0  0  0  0  0  0
   -5.0399   -1.2295    9.1861 H   0  0  0  0  0  0  0  0  0  0  0  0
   -5.3615   -2.4451    7.8954 H   0  0  0  0  0  0  0  0  0  0  0  0
  1  2  2  0
  2  3  1  0
  3  4  1  0
  4  5  2  0
  5  6  1  0
  6  7  2  0
  7  8  1  0
  8  9  2  0
  9 10  1  0
 10 11  2  0
 11 12  1  0
  2 13  1  0
 13 14  2  0
 14 15  1  0
 15 16  2  0
 16 17  1  0
 17 18  1  0
 18 19  1  0
 19 20  1  0
 20 21  1  0
 21 22  1  0
 12  4  1  0
 17 13  1  0
 22 18  1  0
 11  6  1  0
  3 23  1  0
  7 24  1  0
  8 25  1  0
  9 26  1  0
 10 27  1  0
 12 28  1  0
 14 29  1  0
 15 30  1  0
 18 31  1  0
 19 32  1  0
 19 33  1  0
 20 34  1  0
 20 35  1  0
 21 36  1  0
 21 37  1  0
 22 38  1  0
 22 39  1  0
M  END
>  <Energy>  (1513) 
1591.8733270493371

>  <compound_id>  (1513) 
6593

>  <target_id>  (1513) 
1

>  <reference_id>  (1513) 
127

>  <inspiration_ids>  (1513) 
[127, 8]

>  <energy_score>  (1513) 
1552.9646847698832

>  <distance_score>  (1513) 
7.4410354304198405

>  <path>  (1513) 
/opt/xchem-fragalysis-2/maxwin/BulkDock/SCRATCH/511017/C6593-P127/C6593-P127.minimised.mol

>  <scratch_subdir>  (1513) 
/opt/xchem-fragalysis-2/maxwin/BulkDock/SCRATCH/511017/C6593-P127

>  <fragmenstein_runtime>  (1513) 
9.722461223602295

>  <fragmenstein_outcome>  (1513) 
too moved

>  <fragmenstein_mode>  (1513) 
expansion

>  <fragmenstein_error>  (1513) 


$$$$
C6593-P8
     RDKit          3D

 39 42  0  0  0  0  0  0  0  0999 V2000
   -0.3620   -0.6852   11.7289 O   0  0  0  0  0  0  0  0  0  0  0  0
   -0.0473   -1.0885   10.5803 C   0  0  0  0  0  0  0  0  0  0  0  0
    1.3520   -1.9146   10.1293 N   0  0  0  0  0  0  0  0  0  0  0  0
    2.7555   -2.6212   11.1516 C   0  0  0  0  0  0  0  0  0  0  0  0
    3.7970   -3.4285   10.9947 N   0  0  0  0  0  0  0  0  0  0  0  0
    4.7461   -3.1378   12.1761 C   0  0  0  0  0  0  0  0  0  0  0  0
    6.2095   -2.1855   12.4737 C   0  0  0  0  0  0  0  0  0  0  0  0
    6.9509   -1.9704   13.5975 C   0  0  0  0  0  0  0  0  0  0  0  0
    6.4308   -2.4955   14.6808 C   0  0  0  0  0  0  0  0  0  0  0  0
    5.0747   -2.9471   14.6490 C   0  0  0  0  0  0  0  0  0  0  0  0
    3.9484   -3.1904   13.2829 C   0  0  0  0  0  0  0  0  0  0  0  0
    2.7746   -3.5719   12.6387 N   0  0  0  0  0  0  0  0  0  0  0  0
   -1.6146   -0.7815    9.2755 C   0  0  0  0  0  0  0  0  0  0  0  0
   -2.3621    0.3903    8.8775 C   0  0  0  0  0  0  0  0  0  0  0  0
   -3.7299    0.3037    9.0509 C   0  0  0  0  0  0  0  0  0  0  0  0
   -4.1026   -0.8930    9.3766 N   0  0  0  0  0  0  0  0  0  0  0  0
   -3.1075   -1.5604    8.7030 N   0  0  0  0  0  0  0  0  0  0  0  0
   -3.9630   -1.5852    7.3708 C   0  0  0  0  0  0  0  0  0  0  0  0
   -5.3849   -0.7345    7.1514 C   0  0  0  0  0  0  0  0  0  0  0  0
   -6.5357   -1.6239    7.5399 C   0  0  0  0  0  0  0  0  0  0  0  0
   -6.1015   -2.9562    7.0048 C   0  0  0  0  0  0  0  0  0  0  0  0
   -4.5624   -2.9878    7.0686 C   0  0  0  0  0  0  0  0  0  0  0  0
    1.3563   -2.0299    9.1209 H   0  0  0  0  0  0  0  0  0  0  0  0
    6.7450   -1.6864   11.6457 H   0  0  0  0  0  0  0  0  0  0  0  0
    7.8567   -1.4084   13.6579 H   0  0  0  0  0  0  0  0  0  0  0  0
    7.1167   -2.4528   15.5035 H   0  0  0  0  0  0  0  0  0  0  0  0
    4.7366   -3.4320   15.5813 H   0  0  0  0  0  0  0  0  0  0  0  0
    2.6747   -4.5266   12.3539 H   0  0  0  0  0  0  0  0  0  0  0  0
   -2.0512    1.3996    8.7089 H   0  0  0  0  0  0  0  0  0  0  0  0
   -4.4519    1.0415    8.8370 H   0  0  0  0  0  0  0  0  0  0  0  0
   -3.3482   -0.9879    6.7209 H   0  0  0  0  0  0  0  0  0  0  0  0
   -5.5240    0.2366    7.6089 H   0  0  0  0  0  0  0  0  0  0  0  0
   -5.4980   -0.4839    6.0930 H   0  0  0  0  0  0  0  0  0  0  0  0
   -7.4772   -1.2950    7.0884 H   0  0  0  0  0  0  0  0  0  0  0  0
   -6.6769   -1.6101    8.6203 H   0  0  0  0  0  0  0  0  0  0  0  0
   -6.4183   -3.0229    5.9535 H   0  0  0  0  0  0  0  0  0  0  0  0
   -6.5856   -3.8077    7.4843 H   0  0  0  0  0  0  0  0  0  0  0  0
   -4.1055   -3.7729    7.6632 H   0  0  0  0  0  0  0  0  0  0  0  0
   -4.3952   -3.3290    6.0657 H   0  0  0  0  0  0  0  0  0  0  0  0
  1  2  2  0
  2  3  1  0
  3  4  1  0
  4  5  2  0
  5  6  1  0
  6  7  2  0
  7  8  1  0
  8  9  2  0
  9 10  1  0
 10 11  2  0
 11 12  1  0
  2 13  1  0
 13 14  2  0
 14 15  1  0
 15 16  2  0
 16 17  1  0
 17 18  1  0
 18 19  1  0
 19 20  1  0
 20 21  1  0
 21 22  1  0
 12  4  1  0
 17 13  1  0
 22 18  1  0
 11  6  1  0
  3 23  1  0
  7 24  1  0
  8 25  1  0
  9 26  1  0
 10 27  1  0
 12 28  1  0
 14 29  1  0
 15 30  1  0
 18 31  1  0
 19 32  1  0
 19 33  1  0
 20 34  1  0
 20 35  1  0
 21 36  1  0
 21 37  1  0
 22 38  1  0
 22 39  1  0
M  END
>  <Energy>  (1514) 
649.0560700686226

>  <compound_id>  (1514) 
6593

>  <target_id>  (1514) 
1

>  <reference_id>  (1514) 
8

>  <inspiration_ids>  (1514) 
[127, 8]

>  <energy_score>  (1514) 
610.1474277891622

>  <distance_score>  (1514) 
8.264832324801295

>  <path>  (1514) 
/opt/xchem-fragalysis-2/maxwin/BulkDock/SCRATCH/511017/C6593-P8/C6593-P8.minimised.mol

>  <scratch_subdir>  (1514) 
/opt/xchem-fragalysis-2/maxwin/BulkDock/SCRATCH/511017/C6593-P8

>  <fragmenstein_runtime>  (1514) 
15.093027591705322

>  <fragmenstein_outcome>  (1514) 
too moved

>  <fragmenstein_mode>  (1514) 
expansion

>  <fragmenstein_error>  (1514) 


$$$$
C6610-P127
     RDKit          3D

 34 36  0  0  0  0  0  0  0  0999 V2000
   -1.7530   -0.8608    7.2050 C   0  0  0  0  0  0  0  0  0  0  0  0
   -1.4499   -1.1503    8.8933 C   0  0  0  0  0  0  0  0  0  0  0  0
   -2.9356   -0.0881    9.0151 C   0  0  0  0  0  0  0  0  0  0  0  0
   -2.6238   -2.3639    8.5288 C   0  0  0  0  0  0  0  0  0  0  0  0
    0.4700   -0.9759    9.8625 C   0  0  0  0  0  0  0  0  0  0  0  0
    1.7114   -1.0166   11.1873 C   0  0  0  0  0  0  0  0  0  0  0  0
    3.2332    0.0779   11.5906 C   0  0  0  0  0  0  0  0  0  0  0  0
    5.2591   -0.7966   11.9948 C   0  0  0  0  0  0  0  0  0  0  0  0
    6.8249   -0.9702   11.7293 N   0  0  0  0  0  0  0  0  0  0  0  0
    7.4641   -1.0697   12.9995 C   0  0  0  0  0  0  0  0  0  0  0  0
    8.7330   -0.5123   13.7474 C   0  0  0  0  0  0  0  0  0  0  0  0
    9.1410   -0.9280   14.9909 C   0  0  0  0  0  0  0  0  0  0  0  0
    8.3714   -1.9194   15.5246 C   0  0  0  0  0  0  0  0  0  0  0  0
    7.2714   -2.5498   14.8754 C   0  0  0  0  0  0  0  0  0  0  0  0
    6.8158   -2.0506   13.6534 C   0  0  0  0  0  0  0  0  0  0  0  0
    5.8816   -2.2857   12.6754 N   0  0  0  0  0  0  0  0  0  0  0  0
    2.7805    0.9712   10.5684 N   0  0  0  0  0  0  0  0  0  0  0  0
    1.7743    0.1344    9.4013 N   0  0  0  0  0  0  0  0  0  0  0  0
   -2.6676   -1.2488    6.7225 H   0  0  0  0  0  0  0  0  0  0  0  0
   -2.0279    0.1889    7.1130 H   0  0  0  0  0  0  0  0  0  0  0  0
   -0.9658   -1.1880    6.5535 H   0  0  0  0  0  0  0  0  0  0  0  0
   -3.6749   -0.2670    8.2076 H   0  0  0  0  0  0  0  0  0  0  0  0
   -2.8198    0.9523    8.7230 H   0  0  0  0  0  0  0  0  0  0  0  0
   -3.6067   -0.3110    9.8345 H   0  0  0  0  0  0  0  0  0  0  0  0
   -3.6463   -1.9895    8.4139 H   0  0  0  0  0  0  0  0  0  0  0  0
   -2.8399   -3.1806    9.1414 H   0  0  0  0  0  0  0  0  0  0  0  0
   -2.5445   -2.8719    7.5633 H   0  0  0  0  0  0  0  0  0  0  0  0
    1.2083   -0.8342   12.1550 H   0  0  0  0  0  0  0  0  0  0  0  0
    9.4221    0.1187   13.1879 H   0  0  0  0  0  0  0  0  0  0  0  0
   10.0214   -0.5276   15.4752 H   0  0  0  0  0  0  0  0  0  0  0  0
    8.6828   -2.1636   16.5086 H   0  0  0  0  0  0  0  0  0  0  0  0
    6.7465   -3.3632   15.3177 H   0  0  0  0  0  0  0  0  0  0  0  0
    5.2303   -3.0527   12.5670 H   0  0  0  0  0  0  0  0  0  0  0  0
    1.8024    0.6007    8.5128 H   0  0  0  0  0  0  0  0  0  0  0  0
  1  2  1  0
  2  3  1  0
  2  4  1  0
  2  5  1  0
  5  6  2  0
  6  7  1  0
  7  8  1  0
  8  9  2  0
  9 10  1  0
 10 11  2  0
 11 12  1  0
 12 13  2  0
 13 14  1  0
 14 15  2  0
 15 16  1  0
  7 17  2  0
 17 18  1  0
 18  5  1  0
 16  8  1  0
 15 10  1  0
  1 19  1  0
  1 20  1  0
  1 21  1  0
  3 22  1  0
  3 23  1  0
  3 24  1  0
  4 25  1  0
  4 26  1  0
  4 27  1  0
  6 28  1  0
 11 29  1  0
 12 30  1  0
 13 31  1  0
 14 32  1  0
 16 33  1  0
 18 34  1  0
M  END
>  <Energy>  (1515) 
951.5998098149679

>  <compound_id>  (1515) 
6610

>  <target_id>  (1515) 
1

>  <reference_id>  (1515) 
127

>  <inspiration_ids>  (1515) 
[127, 8]

>  <energy_score>  (1515) 
893.9697550782455

>  <distance_score>  (1515) 
6.549662731195581

>  <path>  (1515) 
/opt/xchem-fragalysis-2/maxwin/BulkDock/SCRATCH/511017/C6610-P127/C6610-P127.minimised.mol

>  <scratch_subdir>  (1515) 
/opt/xchem-fragalysis-2/maxwin/BulkDock/SCRATCH/511017/C6610-P127

>  <fragmenstein_runtime>  (1515) 
14.667691707611084

>  <fragmenstein_outcome>  (1515) 
too moved

>  <fragmenstein_mode>  (1515) 
expansion

>  <fragmenstein_error>  (1515) 


$$$$
C6610-P8
     RDKit          3D

 34 36  0  0  0  0  0  0  0  0999 V2000
   -2.1865    0.9329    8.8558 C   0  0  0  0  0  0  0  0  0  0  0  0
   -1.3812   -0.5369    9.2540 C   0  0  0  0  0  0  0  0  0  0  0  0
   -1.8720   -1.4486    7.8676 C   0  0  0  0  0  0  0  0  0  0  0  0
   -3.3083   -0.8011    9.2021 C   0  0  0  0  0  0  0  0  0  0  0  0
    0.7164   -0.4919   10.0159 C   0  0  0  0  0  0  0  0  0  0  0  0
    2.4132    0.3299   10.0936 C   0  0  0  0  0  0  0  0  0  0  0  0
    4.0209    0.2526   10.9083 C   0  0  0  0  0  0  0  0  0  0  0  0
    5.6787   -0.7080   11.8997 C   0  0  0  0  0  0  0  0  0  0  0  0
    7.0585   -0.5733   11.6041 N   0  0  0  0  0  0  0  0  0  0  0  0
    7.7430   -0.6354   12.8210 C   0  0  0  0  0  0  0  0  0  0  0  0
    8.9026    0.0544   13.4830 C   0  0  0  0  0  0  0  0  0  0  0  0
    9.3100   -0.2686   14.7572 C   0  0  0  0  0  0  0  0  0  0  0  0
    8.6690   -1.3295   15.3387 C   0  0  0  0  0  0  0  0  0  0  0  0
    7.6439   -2.0963   14.7324 C   0  0  0  0  0  0  0  0  0  0  0  0
    7.1705   -1.6836   13.4950 C   0  0  0  0  0  0  0  0  0  0  0  0
    6.1814   -1.9795   12.5996 N   0  0  0  0  0  0  0  0  0  0  0  0
    3.1116    1.3828   10.9973 N   0  0  0  0  0  0  0  0  0  0  0  0
    1.8366    0.9849    9.7253 N   0  0  0  0  0  0  0  0  0  0  0  0
   -2.0024    0.5667    7.9126 H   0  0  0  0  0  0  0  0  0  0  0  0
   -1.8648    1.9700    8.6445 H   0  0  0  0  0  0  0  0  0  0  0  0
   -3.2398    1.1646    9.0443 H   0  0  0  0  0  0  0  0  0  0  0  0
   -2.3537   -2.4051    8.0592 H   0  0  0  0  0  0  0  0  0  0  0  0
   -2.6569   -0.9660    7.2719 H   0  0  0  0  0  0  0  0  0  0  0  0
   -1.1615   -1.4819    7.0750 H   0  0  0  0  0  0  0  0  0  0  0  0
   -3.6315   -1.8434    9.1647 H   0  0  0  0  0  0  0  0  0  0  0  0
   -3.8738   -0.4283    8.3156 H   0  0  0  0  0  0  0  0  0  0  0  0
   -3.9252   -0.2773    9.9538 H   0  0  0  0  0  0  0  0  0  0  0  0
    3.2693    1.1321    9.1201 H   0  0  0  0  0  0  0  0  0  0  0  0
    9.5049    0.8030   12.9790 H   0  0  0  0  0  0  0  0  0  0  0  0
   10.1390    0.2425   15.2318 H   0  0  0  0  0  0  0  0  0  0  0  0
    9.0516   -1.5601   16.3011 H   0  0  0  0  0  0  0  0  0  0  0  0
    7.2150   -2.9452   15.2096 H   0  0  0  0  0  0  0  0  0  0  0  0
    5.5673   -2.7757   12.6556 H   0  0  0  0  0  0  0  0  0  0  0  0
    1.4872    1.8379    9.2802 H   0  0  0  0  0  0  0  0  0  0  0  0
  1  2  1  0
  2  3  1  0
  2  4  1  0
  2  5  1  0
  5  6  2  0
  6  7  1  0
  7  8  1  0
  8  9  2  0
  9 10  1  0
 10 11  2  0
 11 12  1  0
 12 13  2  0
 13 14  1  0
 14 15  2  0
 15 16  1  0
  7 17  2  0
 17 18  1  0
 18  5  1  0
 16  8  1  0
 15 10  1  0
  1 19  1  0
  1 20  1  0
  1 21  1  0
  3 22  1  0
  3 23  1  0
  3 24  1  0
  4 25  1  0
  4 26  1  0
  4 27  1  0
  6 28  1  0
 11 29  1  0
 12 30  1  0
 13 31  1  0
 14 32  1  0
 16 33  1  0
 18 34  1  0
M  END
>  <Energy>  (1516) 
1341.5701729746122

>  <compound_id>  (1516) 
6610

>  <target_id>  (1516) 
1

>  <reference_id>  (1516) 
8

>  <inspiration_ids>  (1516) 
[127, 8]

>  <energy_score>  (1516) 
1283.940118237892

>  <distance_score>  (1516) 
6.3328494599573

>  <path>  (1516) 
/opt/xchem-fragalysis-2/maxwin/BulkDock/SCRATCH/511017/C6610-P8/C6610-P8.minimised.mol

>  <scratch_subdir>  (1516) 
/opt/xchem-fragalysis-2/maxwin/BulkDock/SCRATCH/511017/C6610-P8

>  <fragmenstein_runtime>  (1516) 
14.56765866279602

>  <fragmenstein_outcome>  (1516) 
too moved

>  <fragmenstein_mode>  (1516) 
expansion

>  <fragmenstein_error>  (1516) 


$$$$
C6634-P127
     RDKit          3D

 38 40  0  0  0  0  0  0  0  0999 V2000
    1.3172   -5.2011   13.2618 O   0  0  0  0  0  0  0  0  0  0  0  0
    1.3689   -4.3778   14.1547 C   0  0  0  0  0  0  0  0  0  0  0  0
    3.1290   -4.5163   15.0746 C   0  0  0  0  0  0  0  0  0  0  0  0
    4.8767   -3.6052   14.8116 C   0  0  0  0  0  0  0  0  0  0  0  0
    6.4110   -2.9245   15.1135 N   0  0  0  0  0  0  0  0  0  0  0  0
    7.2006   -2.6382   14.0589 C   0  0  0  0  0  0  0  0  0  0  0  0
    8.3996   -2.9908   14.4510 N   0  0  0  0  0  0  0  0  0  0  0  0
    8.5855   -2.0806   15.3513 C   0  0  0  0  0  0  0  0  0  0  0  0
    9.7500   -1.3616   15.6548 C   0  0  0  0  0  0  0  0  0  0  0  0
    9.6423   -0.2498   16.4668 C   0  0  0  0  0  0  0  0  0  0  0  0
    8.4211    0.0380   17.0458 C   0  0  0  0  0  0  0  0  0  0  0  0
    7.2870   -0.7750   16.8217 C   0  0  0  0  0  0  0  0  0  0  0  0
    7.3096   -1.8862   15.8987 C   0  0  0  0  0  0  0  0  0  0  0  0
   -0.0298   -3.1026   14.4185 N   0  0  0  0  0  0  0  0  0  0  0  0
   -1.6574   -2.7247   13.3519 C   0  0  0  0  0  0  0  0  0  0  0  0
   -2.6782   -0.9012   12.8682 C   0  0  0  0  0  0  0  0  0  0  0  0
   -4.2249   -0.5083   11.6588 N   0  0  0  0  0  0  0  0  0  0  0  0
   -5.9926   -0.4458   11.7025 C   0  0  0  0  0  0  0  0  0  0  0  0
   -6.3794   -0.3204    9.9961 C   0  0  0  0  0  0  0  0  0  0  0  0
   -7.8247    0.3207    9.1748 Cl  0  0  0  0  0  0  0  0  0  0  0  0
   -5.1135   -0.3764    9.2637 C   0  0  0  0  0  0  0  0  0  0  0  0
   -3.9853   -0.3945   10.0105 N   0  0  0  0  0  0  0  0  0  0  0  0
    3.4140   -5.5352   14.7665 H   0  0  0  0  0  0  0  0  0  0  0  0
    2.9968   -4.6090   16.1649 H   0  0  0  0  0  0  0  0  0  0  0  0
    4.6592   -2.7752   15.4281 H   0  0  0  0  0  0  0  0  0  0  0  0
    4.8880   -3.5780   13.7244 H   0  0  0  0  0  0  0  0  0  0  0  0
    6.8778   -2.1957   13.1190 H   0  0  0  0  0  0  0  0  0  0  0  0
   10.6759   -1.6040   15.1438 H   0  0  0  0  0  0  0  0  0  0  0  0
   10.5042    0.3882   16.6425 H   0  0  0  0  0  0  0  0  0  0  0  0
    8.3294    0.9075   17.6964 H   0  0  0  0  0  0  0  0  0  0  0  0
    6.4316   -0.5302   17.4239 H   0  0  0  0  0  0  0  0  0  0  0  0
    0.1618   -2.5703   15.2518 H   0  0  0  0  0  0  0  0  0  0  0  0
   -2.0789   -3.7340   13.2072 H   0  0  0  0  0  0  0  0  0  0  0  0
   -1.2220   -2.8224   12.4429 H   0  0  0  0  0  0  0  0  0  0  0  0
   -1.9115   -0.1796   12.4348 H   0  0  0  0  0  0  0  0  0  0  0  0
   -3.2486   -0.3455   13.5953 H   0  0  0  0  0  0  0  0  0  0  0  0
   -6.4727   -0.0886   12.6011 H   0  0  0  0  0  0  0  0  0  0  0  0
   -5.0001   -0.2816    8.1913 H   0  0  0  0  0  0  0  0  0  0  0  0
  1  2  2  0
  2  3  1  0
  3  4  1  0
  4  5  1  0
  5  6  1  0
  6  7  2  0
  7  8  1  0
  8  9  2  0
  9 10  1  0
 10 11  2  0
 11 12  1  0
 12 13  2  0
  2 14  1  0
 14 15  1  0
 15 16  1  0
 16 17  1  0
 17 18  1  0
 18 19  2  0
 19 20  1  0
 19 21  1  0
 21 22  2  0
 13  5  1  0
 22 17  1  0
 13  8  1  0
  3 23  1  0
  3 24  1  0
  4 25  1  0
  4 26  1  0
  6 27  1  0
  9 28  1  0
 10 29  1  0
 11 30  1  0
 12 31  1  0
 14 32  1  0
 15 33  1  0
 15 34  1  0
 16 35  1  0
 16 36  1  0
 18 37  1  0
 21 38  1  0
M  END
>  <Energy>  (1517) 
820.98817021445802

>  <compound_id>  (1517) 
6634

>  <target_id>  (1517) 
1

>  <reference_id>  (1517) 
127

>  <inspiration_ids>  (1517) 
[127, 8]

>  <energy_score>  (1517) 
791.5216233537357

>  <distance_score>  (1517) 
9.896261134865084

>  <path>  (1517) 
/opt/xchem-fragalysis-2/maxwin/BulkDock/SCRATCH/511017/C6634-P127/C6634-P127.minimised.mol

>  <scratch_subdir>  (1517) 
/opt/xchem-fragalysis-2/maxwin/BulkDock/SCRATCH/511017/C6634-P127

>  <fragmenstein_runtime>  (1517) 
8.954871654510498

>  <fragmenstein_outcome>  (1517) 
too moved

>  <fragmenstein_mode>  (1517) 
expansion

>  <fragmenstein_error>  (1517) 


$$$$
C6634-P8
     RDKit          3D

 38 40  0  0  0  0  0  0  0  0999 V2000
    1.7945   -3.1202   17.0870 O   0  0  0  0  0  0  0  0  0  0  0  0
    1.1754   -2.0449   16.9869 C   0  0  0  0  0  0  0  0  0  0  0  0
    1.5188   -1.0324   18.1347 C   0  0  0  0  0  0  0  0  0  0  0  0
    2.7097   -1.7087   19.0406 C   0  0  0  0  0  0  0  0  0  0  0  0
    3.1435   -1.1593   20.3180 N   0  0  0  0  0  0  0  0  0  0  0  0
    2.3608   -1.2296   21.4379 C   0  0  0  0  0  0  0  0  0  0  0  0
    2.9684   -0.8244   22.5247 N   0  0  0  0  0  0  0  0  0  0  0  0
    4.2616   -0.6373   22.1464 C   0  0  0  0  0  0  0  0  0  0  0  0
    5.3632   -0.3038   22.9513 C   0  0  0  0  0  0  0  0  0  0  0  0
    6.6325   -0.2762   22.3912 C   0  0  0  0  0  0  0  0  0  0  0  0
    6.7765   -0.5635   21.0478 C   0  0  0  0  0  0  0  0  0  0  0  0
    5.6857   -0.8559   20.2189 C   0  0  0  0  0  0  0  0  0  0  0  0
    4.4193   -0.8883   20.7855 C   0  0  0  0  0  0  0  0  0  0  0  0
   -0.0007   -1.5639   15.9125 N   0  0  0  0  0  0  0  0  0  0  0  0
   -1.0050   -2.5627   14.4268 C   0  0  0  0  0  0  0  0  0  0  0  0
   -2.2439   -1.3978   12.9251 C   0  0  0  0  0  0  0  0  0  0  0  0
   -3.8581   -0.5214   11.9536 N   0  0  0  0  0  0  0  0  0  0  0  0
   -5.6808   -0.3790   12.0036 C   0  0  0  0  0  0  0  0  0  0  0  0
   -6.4585   -0.3262   10.5850 C   0  0  0  0  0  0  0  0  0  0  0  0
   -8.0809   -0.2873   10.0572 Cl  0  0  0  0  0  0  0  0  0  0  0  0
   -5.2636   -0.3590    9.6009 C   0  0  0  0  0  0  0  0  0  0  0  0
   -4.0244   -0.2068   10.1958 N   0  0  0  0  0  0  0  0  0  0  0  0
    1.7759   -0.0532   17.7360 H   0  0  0  0  0  0  0  0  0  0  0  0
    0.6294   -0.8858   18.7183 H   0  0  0  0  0  0  0  0  0  0  0  0
    2.3601   -2.7162   19.3129 H   0  0  0  0  0  0  0  0  0  0  0  0
    3.6127   -1.8965   18.4537 H   0  0  0  0  0  0  0  0  0  0  0  0
    1.3529   -1.6091   21.4030 H   0  0  0  0  0  0  0  0  0  0  0  0
    5.2120   -0.1122   24.0080 H   0  0  0  0  0  0  0  0  0  0  0  0
    7.4949   -0.0527   23.0116 H   0  0  0  0  0  0  0  0  0  0  0  0
    7.7679   -0.6091   20.6405 H   0  0  0  0  0  0  0  0  0  0  0  0
    5.8243   -1.0908   19.1764 H   0  0  0  0  0  0  0  0  0  0  0  0
   -0.2552   -0.6082   16.1027 H   0  0  0  0  0  0  0  0  0  0  0  0
   -0.0073   -2.4518   14.0071 H   0  0  0  0  0  0  0  0  0  0  0  0
   -1.1010   -3.6313   14.2123 H   0  0  0  0  0  0  0  0  0  0  0  0
   -2.1664   -2.4314   12.6736 H   0  0  0  0  0  0  0  0  0  0  0  0
   -1.5377   -0.7472   12.3405 H   0  0  0  0  0  0  0  0  0  0  0  0
   -6.0854   -0.4238   13.0113 H   0  0  0  0  0  0  0  0  0  0  0  0
   -5.3385   -0.3448    8.5214 H   0  0  0  0  0  0  0  0  0  0  0  0
  1  2  2  0
  2  3  1  0
  3  4  1  0
  4  5  1  0
  5  6  1  0
  6  7  2  0
  7  8  1  0
  8  9  2  0
  9 10  1  0
 10 11  2  0
 11 12  1  0
 12 13  2  0
  2 14  1  0
 14 15  1  0
 15 16  1  0
 16 17  1  0
 17 18  1  0
 18 19  2  0
 19 20  1  0
 19 21  1  0
 21 22  2  0
 13  5  1  0
 22 17  1  0
 13  8  1  0
  3 23  1  0
  3 24  1  0
  4 25  1  0
  4 26  1  0
  6 27  1  0
  9 28  1  0
 10 29  1  0
 11 30  1  0
 12 31  1  0
 14 32  1  0
 15 33  1  0
 15 34  1  0
 16 35  1  0
 16 36  1  0
 18 37  1  0
 21 38  1  0
M  END
>  <Energy>  (1518) 
710.75829437754362

>  <compound_id>  (1518) 
6634

>  <target_id>  (1518) 
1

>  <reference_id>  (1518) 
8

>  <inspiration_ids>  (1518) 
[127, 8]

>  <energy_score>  (1518) 
681.2917475168161

>  <distance_score>  (1518) 
11.854646036288447

>  <path>  (1518) 
/opt/xchem-fragalysis-2/maxwin/BulkDock/SCRATCH/511017/C6634-P8/C6634-P8.minimised.mol

>  <scratch_subdir>  (1518) 
/opt/xchem-fragalysis-2/maxwin/BulkDock/SCRATCH/511017/C6634-P8

>  <fragmenstein_runtime>  (1518) 
14.363058090209961

>  <fragmenstein_outcome>  (1518) 
too moved

>  <fragmenstein_mode>  (1518) 
expansion

>  <fragmenstein_error>  (1518) 


$$$$
C6635-P127
     RDKit          3D

 39 41  0  0  0  0  0  0  0  0999 V2000
    7.6098   -3.3215   15.4127 C   0  0  0  0  0  0  0  0  0  0  0  0
    6.5838   -3.0620   14.4302 N   0  0  0  0  0  0  0  0  0  0  0  0
    4.9060   -3.3849   14.6526 C   0  0  0  0  0  0  0  0  0  0  0  0
    3.1734   -3.4442   13.6436 C   0  0  0  0  0  0  0  0  0  0  0  0
    1.7476   -2.2204   13.7089 N   0  0  0  0  0  0  0  0  0  0  0  0
    0.4403   -1.9608   14.0432 C   0  0  0  0  0  0  0  0  0  0  0  0
    0.2549   -0.6892   13.0745 C   0  0  0  0  0  0  0  0  0  0  0  0
   -1.1632   -0.2782   12.3246 Cl  0  0  0  0  0  0  0  0  0  0  0  0
    1.3968   -0.1362   12.7847 C   0  0  0  0  0  0  0  0  0  0  0  0
    1.7627   -0.7546   13.8046 N   0  0  0  0  0  0  0  0  0  0  0  0
    7.1349   -1.7379   14.1857 C   0  0  0  0  0  0  0  0  0  0  0  0
    8.7045   -1.0349   14.7337 C   0  0  0  0  0  0  0  0  0  0  0  0
   10.0436   -1.4856   15.1320 N   0  0  0  0  0  0  0  0  0  0  0  0
   10.7821   -2.5889   14.8075 C   0  0  0  0  0  0  0  0  0  0  0  0
   11.9891   -2.5932   15.3216 N   0  0  0  0  0  0  0  0  0  0  0  0
   12.1314   -1.3619   15.8716 C   0  0  0  0  0  0  0  0  0  0  0  0
   13.2691   -0.7928   16.4553 C   0  0  0  0  0  0  0  0  0  0  0  0
   13.2086    0.5349   16.8762 C   0  0  0  0  0  0  0  0  0  0  0  0
   12.0328    1.2699   16.7312 C   0  0  0  0  0  0  0  0  0  0  0  0
   10.8756    0.7029   16.1829 C   0  0  0  0  0  0  0  0  0  0  0  0
   10.9534   -0.6277   15.7581 C   0  0  0  0  0  0  0  0  0  0  0  0
    7.6820   -2.5292   16.1525 H   0  0  0  0  0  0  0  0  0  0  0  0
    8.5485   -3.3853   14.8926 H   0  0  0  0  0  0  0  0  0  0  0  0
    7.7003   -4.2570   15.9099 H   0  0  0  0  0  0  0  0  0  0  0  0
    4.8028   -2.6761   15.4641 H   0  0  0  0  0  0  0  0  0  0  0  0
    4.8659   -4.3575   15.1526 H   0  0  0  0  0  0  0  0  0  0  0  0
    2.5884   -4.3064   13.9948 H   0  0  0  0  0  0  0  0  0  0  0  0
    3.3755   -3.4940   12.5687 H   0  0  0  0  0  0  0  0  0  0  0  0
   -0.2040   -2.6996   14.5225 H   0  0  0  0  0  0  0  0  0  0  0  0
    1.9542    0.6641   12.3323 H   0  0  0  0  0  0  0  0  0  0  0  0
    6.4513   -1.3177   14.9117 H   0  0  0  0  0  0  0  0  0  0  0  0
    6.9173   -1.4405   13.1615 H   0  0  0  0  0  0  0  0  0  0  0  0
    8.4007   -0.4692   15.6244 H   0  0  0  0  0  0  0  0  0  0  0  0
    8.9648   -0.3433   13.9357 H   0  0  0  0  0  0  0  0  0  0  0  0
   10.4371   -3.3824   14.1767 H   0  0  0  0  0  0  0  0  0  0  0  0
   14.1814   -1.3711   16.5446 H   0  0  0  0  0  0  0  0  0  0  0  0
   14.0863    0.9995   17.3181 H   0  0  0  0  0  0  0  0  0  0  0  0
   12.0064    2.3030   17.0723 H   0  0  0  0  0  0  0  0  0  0  0  0
    9.9702    1.2906   16.0828 H   0  0  0  0  0  0  0  0  0  0  0  0
  1  2  1  0
  2  3  1  0
  3  4  1  0
  4  5  1  0
  5  6  1  0
  6  7  2  0
  7  8  1  0
  7  9  1  0
  9 10  2  0
  2 11  1  0
 11 12  1  0
 12 13  1  0
 13 14  1  0
 14 15  2  0
 15 16  1  0
 16 17  2  0
 17 18  1  0
 18 19  2  0
 19 20  1  0
 20 21  2  0
 10  5  1  0
 21 13  1  0
 21 16  1  0
  1 22  1  0
  1 23  1  0
  1 24  1  0
  3 25  1  0
  3 26  1  0
  4 27  1  0
  4 28  1  0
  6 29  1  0
  9 30  1  0
 11 31  1  0
 11 32  1  0
 12 33  1  0
 12 34  1  0
 14 35  1  0
 17 36  1  0
 18 37  1  0
 19 38  1  0
 20 39  1  0
M  END
>  <Energy>  (1519) 
453.79671761277854

>  <compound_id>  (1519) 
6635

>  <target_id>  (1519) 
1

>  <reference_id>  (1519) 
127

>  <inspiration_ids>  (1519) 
[127, 8]

>  <energy_score>  (1519) 
362.8057175467155

>  <distance_score>  (1519) 
10.121900505295644

>  <path>  (1519